111
 OpenBabel12081819083D

 22 23  0  0  1  0  0  0  0  0999 V2000
   -0.5493   -6.9329   -0.6326 O   0  0  0  0  0  0  0  0  0  0  0  0
   -1.5781   -2.9510    3.1321 C   0  0  0  0  0  0  0  0  0  0  0  0
    0.0029    1.6542    0.6093 C   0  0  0  0  0  0  0  0  0  0  0  0
    0.8022   -2.0004   -1.3728 N   0  0  0  0  0  0  0  0  0  0  0  0
    1.2001   -0.3609    0.8846 O   0  0  0  0  0  0  0  0  0  0  0  0
   -2.2972   -6.8434    0.5632 O   0  0  0  0  0  0  0  0  0  0  0  0
   -6.6121   -2.0419    3.4018 C   0  0  0  0  0  0  0  0  0  0  0  0
   -5.6333   -2.7674    4.3274 C   0  0  0  0  0  0  0  0  0  0  0  0
   -6.2975   -2.3975    1.9474 C   0  0  0  0  0  0  0  0  0  0  0  0
   -4.2031   -2.3372    3.9951 C   0  0  0  0  0  0  0  0  0  0  0  0
   -4.8673   -1.9674    1.6151 C   0  0  0  0  0  0  0  0  0  0  0  0
   -0.1284   -4.1665   -0.6922 C   0  0  0  0  0  0  0  0  0  0  0  0
   -0.9331   -0.6187    0.3325 N   0  0  0  0  0  0  0  0  0  0  0  0
   -2.1852   -4.1474    0.7074 C   0  0  0  0  0  0  0  0  0  0  0  0
   -0.4107   -2.6761   -0.8929 C   0  0  1  0  0  0  0  0  0  0  0  0
   -3.8885   -2.6928    2.5406 C   0  0  0  0  0  0  0  0  0  0  0  0
   -0.8369   -2.0756    0.4523 C   0  0  2  0  0  0  0  0  0  0  0  0
   -2.2019   -2.6511    0.8353 C   0  0  2  0  0  0  0  0  0  0  0  0
   -2.5154   -2.2798    2.2216 N   0  0  0  0  0  0  0  0  0  0  0  0
    0.1341    0.1529    0.6190 C   0  0  0  0  0  0  0  0  0  0  0  0
   -1.3786   -6.2782   -0.0151 C   0  0  0  0  0  0  0  0  0  0  0  0
   -1.2716   -4.8159    0.0319 C   0  0  0  0  0  0  0  0  0  0  0  0
  1 21  1  0  0  0  0
  2 19  1  0  0  0  0
  3 20  1  0  0  0  0
  5 20  2  0  0  0  0
  6 21  2  0  0  0  0
  7  8  1  0  0  0  0
  7  9  1  0  0  0  0
  8 10  1  0  0  0  0
  9 11  1  0  0  0  0
 10 16  1  0  0  0  0
 11 16  1  0  0  0  0
 12 15  1  0  0  0  0
 12 22  1  0  0  0  0
 13 20  1  0  0  0  0
 14 18  1  0  0  0  0
 14 22  2  0  0  0  0
 15  4  1  1  0  0  0
 15 17  1  0  0  0  0
 16 19  1  0  0  0  0
 17 13  1  6  0  0  0
 17 18  1  0  0  0  0
 18 19  1  1  0  0  0
 21 22  1  0  0  0  0
M  END
>  <MOLID>
111
>  <SMILES_CANONICAL> (111)
CC(=O)N[C@@H]1[C@@H](N)CC(=C[C@H]1N(C1CCCCC1)C)C(=O)O	111

>  <FINGERPRINT>
0000000000000011000000000001000000001001000000001011010000100000000000000001000000000000000000000000010000000000000001000000000000000000000110000000000000000000000000000000000000000000000000000000000000011000000000011000000000111000000000000000010000001010000100010000000001000000000000000000000000010000000000011000100000000000001000000000000000000000010000010000000100010000000000000000010000000010100000010001101000000001100000010010000000000100000000000000000000000100000000000000000000001000000000110000100000100000000000000100000000000000000000000000000000000001011000000100001001000001001000000001000000000000000000000000001000000001000000000000000000000000000000000011000000000100000011111001000000000001000000001000000000000001000000100001000000000000000110000000000000000000000100000000000000001000000000001000110000000000000000000100100001000000000000001001000000000000000000000000000000001100000000000000000000000000000000000000010000000100000100010000010000000010000000000000000000000010000000000010001000000000

>  <MACCS166>
000000000000000000000000000000000000000000000000010001000000000000000000000100110001100001011000001000010001011000011100011000001010100100111100111111100101111110111000

>  <OB_MW>
309.205

>  <OB_logP>
1.9574

>  <OB_PSA>
95.66

>  <OB_MR>
84.7009

>  <OB_CHARGES>
-0.2409183866 0.0898543667 0.0964245567 -0.130679486 -0.2733287719 -0.2409183866 9.14019e-05 0.0013820097 0.0013820097 0.015967389 0.015967389 0.0535877739 -0.2039398321 -0.0063980256 0.1178884051 0.0578389938 0.1317735283 0.101388387 -0.2690188524 0.2419134782 0.3836211815 0.0561208709

>  <OB_ATOM_TYPES>
O.co2 C.3 C.3 N.3 O.2 O.co2 C.3 C.3 C.3 C.3 C.3 C.3 N.am C.2 C.3 C.3 C.3 C.3 N.3 C.2 C.2 C.2

>  <OB_ATOMIC_CHARGES>
-0.2409 0.0899 0.0964 -0.1307 -0.2733 -0.2409 0.0001 0.0014 0.0014 0.0160 0.0160 0.0536 -0.2039 -0.0064 0.1179 0.0578 0.1318 0.1014 -0.2690 0.2419 0.3836 0.0561

>  <MCT_HBD>
3

>  <MCT_HBA>
6

>  <ENSEMBLE_TOTAL>
50

>  <ENSEMBLE_RMSD>
0.000 0.910 1.062 1.108 1.148 1.162 1.181 1.229 1.258 1.339 1.349 1.351 1.413 1.440 1.453 1.524 1.529 1.536 1.552 1.559 1.566 1.573 1.655 1.678 1.690 1.876 1.883 1.919 1.936 1.944 1.968 1.987 2.003 2.052 2.086 2.090 2.118 2.152 2.154 2.169 2.185 2.234 2.237 2.260 2.272 2.383 2.388 2.392 2.450 2.640

>  <ENSEMBLE_COORDS>
1.8048 -4.4336 -1.9585 0.7760 -0.4517 1.8062 2.3570 4.1535 -0.7166 3.1563 0.4989 -2.6987 3.5542 2.1384 -0.4413 0.0569 -4.3441 -0.7627 -4.2580 0.4574 2.0759 -3.2792 -0.2681 3.0015 -3.9434 0.1018 0.6215 -1.8490 0.1621 2.6692 -2.5132 0.5319 0.2892 2.2257 -1.6672 -2.0181 1.4210 1.8806 -0.9934 0.1689 -1.6481 -0.6185 1.9434 -0.1768 -2.2188 -1.5344 -0.1935 1.2147 1.5172 0.4237 -0.8736 0.1522 -0.1518 -0.4906 -0.1613 0.2195 0.8957 2.4882 2.6522 -0.7069 0.9755 -3.7789 -1.3410 1.0825 -2.3166 -1.2940 2.4725 -3.9987 -2.4515 0.5477 -0.1813 2.8160 1.7762 -0.1508 1.5738 0.6868 -1.5118 1.6920 3.2991 4.5955 -0.4675 1.6220 4.4519 0.0015 2.0567 4.4790 -1.6907 3.4376 0.0977 -3.5933 3.9066 0.3740 -2.0191 -4.1623 1.5142 2.2134 -5.2582 0.1566 2.3083 -3.3749 -1.3249 2.8639 -3.4992 -0.0195 4.0187 -4.6279 0.6091 -0.0258 -4.0391 -0.9550 0.4840 -1.1645 -0.3452 3.3165 -1.7534 1.2189 2.8067 -2.4175 1.5887 0.4267 -2.2932 0.2832 -0.7280 3.1205 -1.7835 -1.4430 2.3439 -2.1328 -2.9742 0.5768 2.2960 -1.2832 -0.5784 -2.1842 -0.1503 1.1660 -0.0467 -2.9425 -1.6301 -1.2503 1.0772 2.2390 0.1829 -0.1213 -0.5931 0.2452 -1.1477
1.8267 -4.5919 -2.3789 0.7663 -0.7568 1.9062 1.5797 4.0931 -0.6649 3.2015 0.4580 -2.8400 3.1307 2.4800 0.1675 1.5101 -4.6179 -0.1239 -4.1308 0.9662 2.1286 -3.3951 -0.1189 2.9019 -3.7703 0.9229 0.6509 -1.8844 -0.0514 2.6774 -2.2590 0.9960 0.4353 2.5172 -1.7591 -2.0544 1.2846 1.7304 -1.0440 0.4470 -1.9849 -0.6655 2.0779 -0.2965 -2.2835 -1.5153 -0.1446 1.1735 1.5769 0.2968 -0.9468 0.3047 -0.4836 -0.4855 -0.0547 -0.0665 0.9024 2.0978 2.6947 -0.4630 1.5938 -4.0126 -1.1819 1.4756 -2.5488 -1.3166 1.9444 -5.5622 -2.2849 0.3776 -1.7548 2.1398 0.8125 -0.1726 2.8306 1.8056 -0.8836 1.5850 0.7901 4.2969 0.0631 1.1947 4.2259 -1.6791 2.3958 4.8055 -0.5092 2.8987 1.4141 -3.0268 3.4449 0.0690 -3.7512 -3.8749 1.9501 2.5405 -5.2125 0.8393 2.2499 -3.7623 -1.1039 2.5879 -3.6143 -0.0233 3.9714 -4.2575 1.7529 0.1271 -4.1554 -0.0041 0.2075 -1.4349 -0.8726 3.2465 -1.4968 0.8852 3.0999 -1.8866 1.9685 0.7832 -2.0843 0.9636 -0.6441 3.4478 -1.7908 -1.4724 2.7287 -2.2229 -3.0257 0.6158 2.0192 -1.7517 -0.3028 -2.6101 -0.1856 1.2615 -0.2698 -3.0186 -1.8968 -1.1053 0.8025 2.3787 0.1753 -0.2070 -0.4986 -0.1943 -1.1729
0.0369 -4.1608 -1.6548 0.7670 0.0011 1.9616 2.7425 4.2462 -0.6460 1.8493 0.2712 -3.2917 4.1335 2.3091 -0.6571 2.1887 -4.4472 -0.9703 -4.4102 0.0698 1.9461 -3.3748 -0.6037 2.8316 -3.9911 0.0177 0.4821 -1.9870 0.0027 2.6244 -2.5903 0.6022 0.2598 2.5937 -1.6249 -1.8531 1.8353 2.0200 -0.9063 0.3648 -1.5325 -0.7256 2.5048 -0.0979 -2.0367 -1.5340 -0.1041 1.1414 1.8343 0.5572 -0.8014 0.4011 -0.0288 -0.4848 -0.1379 0.3831 0.8671 2.9949 2.7664 -0.7362 1.2603 -3.7178 -1.2859 1.3505 -2.2407 -1.2930 -0.1492 -5.0492 -1.2786 0.7284 -1.0753 2.1638 0.5097 0.5460 2.8762 1.8094 0.2714 1.7962 3.6880 4.7807 -0.7850 2.3460 4.4874 0.3434 2.0444 4.5723 -1.4210 0.8840 -0.0483 -3.3036 2.3211 -0.1872 -4.0705 -4.5351 1.1134 2.2578 -5.3806 -0.4232 2.0741 -3.3386 -1.6771 2.6024 -3.6656 -0.5161 3.8842 -4.7228 0.5583 -0.1286 -4.0034 -1.0258 0.1408 -1.3108 -0.5513 3.2845 -1.9834 1.0502 2.9497 -2.6050 1.6777 0.4772 -2.3569 0.4923 -0.8039 3.4150 -1.8437 -1.1571 2.8589 -2.1049 -2.8033 0.9513 2.4978 -1.0569 -0.5228 -2.0718 -0.4151 3.5356 0.2689 -2.1172 -1.5929 -1.1733 0.9249 2.5131 0.3245 0.0236 -0.2703 0.4180 -1.2293
2.1571 -4.5422 -2.0412 0.8148 -0.3538 1.8094 2.1705 2.9001 0.3818 2.9451 0.5489 -3.1517 1.5341 4.0033 -1.6369 1.9316 -4.3144 0.2130 -4.2201 0.9197 2.0386 -3.3525 0.0189 2.9058 -3.9049 0.7274 0.5622 -1.8651 0.2000 2.6042 -2.4155 0.9128 0.2721 2.5375 -1.6241 -2.0928 0.9179 1.8019 -1.4242 0.5567 -1.9079 -0.5886 1.9295 -0.2524 -2.4671 -1.5416 -0.0547 1.1092 1.4070 0.4364 -1.1846 0.2512 -0.4231 -0.5769 -0.1067 0.1155 0.7669 1.5314 2.9596 -0.9833 1.9076 -3.8427 -0.9139 1.6197 -2.4290 -1.2187 2.3745 -5.4773 -1.8341 0.5431 -1.3471 2.1839 0.8301 0.3474 2.6500 1.8506 -0.4121 1.4574 3.1648 2.4518 0.3026 1.5590 2.3327 1.0845 2.2804 3.9141 0.7771 2.5331 1.4371 -3.4368 3.2073 0.0822 -4.0206 -4.0548 1.9680 2.3157 -5.2784 0.7028 2.2224 -3.6293 -1.0290 2.7353 -3.5432 0.2308 3.9639 -4.4882 1.4371 -0.0351 -4.2119 -0.2791 0.2510 -1.3150 -0.4919 3.2511 -1.5599 1.2172 2.8848 -2.1288 1.9517 0.4833 -2.2733 0.7634 -0.8022 3.4871 -1.4868 -1.5584 2.7630 -2.1763 -3.0135 0.2905 1.9122 -2.2153 -0.1012 -2.5478 -0.0047 1.0946 -0.4012 -3.1657 -1.8422 -1.0851 0.8775 2.2472 0.4954 -0.4840 -0.6043 -0.3106 -1.2534
1.0570 -4.7677 -0.6671 0.7380 -1.0566 1.8636 1.0267 3.9565 -0.3736 3.0741 0.5692 -2.9584 2.9283 2.5771 0.0755 2.8791 -4.5636 -2.0058 -3.8976 1.2642 2.0932 -3.3452 0.0365 2.8038 -3.5114 1.2594 0.6210 -1.8336 -0.0906 2.6173 -2.0002 1.1315 0.4378 2.5913 -1.7085 -2.1755 1.1293 1.6619 -1.0904 0.5911 -2.1081 -0.7369 2.0375 -0.2824 -2.3728 -1.4406 -0.1427 1.1193 1.5395 0.2548 -1.0123 0.3476 -0.6240 -0.5280 0.0196 -0.2427 0.8768 1.8109 2.6724 -0.4260 1.9312 -4.0602 -1.4204 1.6405 -2.6012 -1.4160 1.3209 -5.7073 -0.5707 0.2455 -2.0213 2.0385 0.8129 -0.5297 2.8199 1.7702 -1.2619 1.5567 1.6551 4.7494 0.0436 0.1492 3.8320 0.2662 0.7169 4.2523 -1.3797 2.6441 1.4346 -3.2867 3.4497 0.1200 -3.7939 -3.5093 2.1718 2.5713 -4.9885 1.2911 2.1907 -3.8333 -0.8639 2.4110 -3.5833 0.0885 3.8720 -3.8649 2.1794 0.1423 -4.0094 0.4236 0.1140 -1.5142 -0.9983 3.1412 -1.3365 0.7582 3.1060 -1.5090 2.0208 0.8534 -1.7986 1.1387 -0.6380 3.5418 -1.6720 -1.6265 2.8053 -2.1459 -3.1594 0.5248 1.9228 -1.8642 -0.1273 -2.7701 -0.2602 1.1983 -0.3134 -3.0812 -1.9339 -1.0205 0.6798 2.3651 0.1835 -0.2892 -0.5047 -0.3979 -1.1822
3.0457 -4.3521 -1.5308 0.7676 -0.8529 1.9182 1.3997 4.1013 -0.5373 1.3991 -0.0006 -3.3610 2.8208 2.5521 0.6052 0.8208 -4.7724 -1.2882 -4.0124 1.1211 2.0954 -3.4303 -0.1277 2.7426 -3.5711 1.2509 0.6441 -1.9105 -0.1934 2.5904 -2.0508 1.1826 0.5025 2.6785 -1.6722 -2.0554 1.3376 1.7528 -1.0050 0.5965 -1.9859 -0.6965 2.2887 -0.1904 -2.2100 -1.4637 -0.1143 1.1095 1.6586 0.3286 -0.8988 0.4009 -0.4954 -0.4857 0.0073 -0.1203 0.9028 1.9451 2.7324 -0.2364 1.7493 -3.9869 -1.3921 1.6394 -2.5094 -1.3608 3.1544 -5.3249 -1.5905 0.3558 -1.8514 2.1039 0.7805 -0.2980 2.8612 1.8181 -0.9837 1.6358 1.9515 4.8527 0.0344 0.3443 4.1451 -0.2550 1.5085 4.3213 -1.6030 0.5434 -0.5383 -3.2370 1.8441 -0.3701 -4.2003 -3.6911 2.0075 2.6560 -5.1067 1.0897 2.1483 -3.8810 -1.0196 2.2903 -3.6933 -0.1441 3.8065 -3.9347 2.2005 0.2353 -4.0294 0.4516 0.0487 -1.5731 -1.1288 3.0506 -1.4605 0.6305 3.1597 -1.6037 2.0560 0.9955 -1.8103 1.2687 -0.5624 3.6056 -1.7258 -1.4692 2.9082 -2.1012 -3.0389 0.6928 2.0323 -1.7386 -0.1571 -2.6361 -0.2578 3.2009 0.3829 -2.4190 -1.9044 -0.9757 0.5882 2.4308 0.2262 -0.1249 -0.4103 -0.2154 -1.1703
0.5653 -4.5283 -2.1818 0.9057 -0.8267 1.8693 0.7924 3.9420 -0.3846 3.4827 0.3549 -2.7818 1.6241 2.3380 1.1778 2.2513 -4.6835 -0.6470 -3.9526 1.0748 1.9854 -3.1820 0.1197 2.8856 -3.6276 0.8252 0.5212 -1.6803 0.1853 2.6212 -2.1241 0.8998 0.2675 2.5963 -1.8164 -2.1042 1.4938 1.7517 -1.0859 0.5237 -1.9539 -0.7210 2.2789 -0.3127 -2.2804 -1.3488 -0.1220 1.1410 1.7686 0.3042 -0.9477 0.4736 -0.4578 -0.5104 0.1090 -0.0845 0.8791 1.3439 2.5977 0.0107 1.5092 -4.0240 -1.3565 1.5045 -2.5553 -1.4008 0.3836 -5.4731 -1.9861 0.4809 -1.8141 2.0849 0.9758 -0.2649 2.8061 1.9413 -0.9804 1.5450 -0.1356 3.8257 -0.9506 1.5331 4.4750 -0.9867 0.5826 4.5316 0.5134 3.2758 1.3311 -2.9863 3.7365 -0.0553 -3.6814 -3.6964 2.1095 2.2436 -5.0283 0.9559 2.1517 -3.5304 -0.9068 2.7158 -3.3812 0.3568 3.9360 -4.1450 1.5587 -0.1069 -3.9947 -0.1653 0.2235 -1.2001 -0.5327 3.2944 -1.3019 1.1814 2.8883 -1.7643 1.9167 0.4719 -1.9847 0.7283 -0.8027 3.5222 -1.9443 -1.5280 2.7651 -2.2668 -3.0907 1.8841 2.1943 -1.9115 -0.2635 -2.5498 -0.2640 1.4954 -0.1993 -3.0425 -1.7268 -1.1274 0.9132 2.5660 0.2060 -0.1993 -0.2970 -0.1191 -1.2078
1.1946 -4.5123 -0.5864 0.7074 -1.0578 1.9935 1.5302 4.0426 -1.5651 3.6981 0.5749 -2.2277 0.2558 2.2078 -2.4128 1.3739 -4.2826 -2.8543 -4.1240 0.8235 2.1646 -3.4707 -0.4013 2.7871 -3.6657 1.0052 0.7246 -1.9477 -0.3271 2.6954 -2.1401 1.0830 0.6281 2.6739 -1.6249 -1.8962 1.6382 1.8551 -0.5698 0.4450 -1.7898 -0.7740 2.4328 -0.1030 -1.9398 -1.4680 -0.1798 1.2283 1.8044 0.3939 -0.6131 0.4509 -0.3391 -0.3347 0.0162 -0.1310 1.0806 1.0597 2.6116 -1.5760 1.3375 -3.8046 -1.7322 1.4619 -2.3683 -1.4270 1.1039 -5.4758 -0.7503 0.2465 -2.0533 1.9970 0.6971 -0.6699 3.0181 1.7633 -1.1927 1.7385 2.4653 4.1242 -2.1260 1.6792 4.4039 -0.5435 0.7751 4.6725 -2.0448 3.5268 1.5760 -2.3187 4.0356 0.2758 -3.1425 -3.8630 1.7154 2.7479 -5.2145 0.7214 2.2002 -3.8204 -1.3059 2.2722 -3.7742 -0.4928 3.8358 -4.1131 1.9135 0.3055 -4.0249 0.1638 0.1173 -1.5554 -1.2425 3.1504 -1.5852 0.5174 3.2961 -1.7851 1.9830 1.1472 -1.8913 1.2133 -0.4289 3.5152 -1.8702 -1.2341 2.9476 -1.9653 -2.9036 1.9136 2.3229 0.2894 -0.4387 -2.3757 -0.5290 1.7447 0.1126 -2.7659 -1.8471 -1.0519 0.6808 2.5180 0.1742 0.1931 -0.2831 0.1300 -0.9951
3.1861 -3.9766 -1.2516 0.6649 -0.4824 1.9645 3.2252 3.0357 -0.5773 1.2294 0.1493 -3.3202 1.5195 4.0565 -1.9000 0.9991 -4.5554 -1.0073 -4.4146 0.5992 2.0890 -3.5765 -0.4226 2.8432 -4.0141 0.6539 0.6219 -2.0776 -0.1730 2.6641 -2.5146 0.9023 0.4474 2.6183 -1.3600 -1.9505 1.0312 2.0157 -0.9705 0.5404 -1.7699 -0.6128 2.1272 0.0864 -2.1639 -1.6592 -0.1686 1.1685 1.4505 0.6089 -0.8755 0.2412 -0.2903 -0.4468 -0.2095 0.0873 0.9309 1.8642 3.0879 -1.2221 1.8625 -3.7059 -1.1608 1.6338 -2.2424 -1.2322 3.3623 -4.9400 -1.3055 1.7196 -0.4832 1.6713 0.4012 -1.5190 2.2037 0.6138 0.1153 2.8802 3.9188 2.5015 -1.2320 3.1887 2.5532 0.4020 3.5966 4.0555 -0.4401 1.7608 -0.0626 -4.1650 0.9016 1.1079 -3.4358 -4.2881 1.5892 2.5440 -5.4769 0.3419 2.1733 -3.8206 -1.4303 2.4843 -3.8326 -0.3937 3.9086 -4.5801 1.4442 0.1164 -4.2841 -0.2924 0.1363 -1.5509 -0.9570 3.2187 -1.8150 0.7867 3.1289 -2.2651 1.8993 0.8338 -2.3093 0.9214 -0.6269 3.5411 -1.3222 -1.3567 2.8894 -1.8094 -2.9151 0.0552 2.1641 -1.2099 -0.1763 -2.4590 -0.1718 3.0019 0.7034 -2.3989 -1.9202 -1.1525 0.7570 2.2126 0.5780 -0.0887 -0.5722 -0.0765 -1.1502
1.4003 -4.5729 -0.3489 0.8144 -0.6243 1.8050 1.9529 2.8808 0.4391 2.7985 0.6771 -3.2344 1.3481 3.9619 -1.6037 3.1514 -4.3329 -1.7720 -4.0802 1.1160 2.0297 -3.3461 0.0587 2.8423 -3.7461 0.9945 0.5506 -1.8381 0.0919 2.5889 -2.2384 1.0247 0.3061 2.5665 -1.5497 -2.2208 0.7800 1.7463 -1.3918 0.6656 -1.9979 -0.6645 1.8663 -0.2087 -2.5332 -1.5010 -0.0909 1.0875 1.3569 0.4073 -1.2106 0.2766 -0.5341 -0.5943 -0.0527 -0.0469 0.7752 1.3536 2.9218 -0.9450 2.1748 -3.8657 -1.2046 1.7378 -2.4501 -1.3362 1.7681 -5.4624 -0.1620 0.4694 -1.6148 2.1241 0.8582 0.0287 2.6820 1.8504 -0.7267 1.4612 2.0750 3.9031 0.8092 2.9386 2.4087 0.4048 1.3081 2.3441 1.1372 2.2774 1.4607 -3.6293 3.1923 0.1869 -4.0382 -3.8052 2.1151 2.3890 -5.1614 1.0102 2.1735 -3.7338 -0.9338 2.5818 -3.5466 0.2101 3.9088 -4.2255 1.8087 -0.0037 -4.1579 0.0556 0.1599 -1.3841 -0.7017 3.1918 -1.4338 1.0468 2.9511 -1.8432 2.0072 0.5972 -2.0801 0.9320 -0.7723 3.5278 -1.3662 -1.7213 2.7898 -2.0618 -3.1656 0.1229 1.8405 -2.1607 0.0374 -2.6743 -0.0908 1.0136 -0.3899 -3.2017 -1.8998 -1.0653 0.7743 2.2140 0.4903 -0.5310 -0.6127 -0.4587 -1.2335
3.1622 -3.7168 -0.3331 0.6305 -0.2386 1.8794 3.4826 3.0499 -0.3341 2.1837 0.8464 -3.4550 1.2294 3.4843 -1.0222 1.6057 -4.5144 -1.8080 -4.4717 0.6320 2.1135 -3.5524 -0.2244 2.9724 -4.1479 0.4786 0.6338 -2.0789 0.0475 2.6736 -2.6725 0.7549 0.3462 2.3634 -1.2805 -2.2356 1.8735 1.2842 -0.5861 0.6600 -1.8450 -0.4846 1.4485 -0.1013 -2.6165 -1.7417 -0.1631 1.1768 0.8446 0.5855 -1.3645 0.0494 -0.4575 -0.5064 -0.3242 0.1078 0.8200 2.0750 2.6561 -0.6940 2.1211 -3.6004 -1.1860 1.6977 -2.1956 -1.2561 3.5137 -4.6322 -0.3088 0.4299 -1.2254 2.3121 0.5936 0.5093 2.6787 1.6675 -0.2486 1.5296 4.1960 2.5036 -0.9582 3.6652 2.8294 0.7218 3.6161 4.1227 -0.4998 1.5446 1.5671 -3.7887 2.5255 0.3712 -4.2900 -4.3670 1.6840 2.4029 -5.5150 0.3531 2.2964 -3.7669 -1.2853 2.7937 -3.7539 -0.0348 4.0328 -4.7733 1.1613 0.0475 -4.3974 -0.5387 0.3074 -1.4896 -0.6213 3.3097 -1.8335 1.0751 2.9714 -2.4506 1.8071 0.5675 -2.5143 0.6265 -0.7297 3.3035 -0.9250 -1.7950 2.6285 -1.8378 -3.1429 2.6600 0.7204 -0.2791 0.1804 -2.5862 0.1517 0.6181 -0.4941 -3.2212 -1.9735 -1.2093 0.9335 0.1248 1.3476 -1.6949 -0.8704 -0.6291 -1.0820
2.4300 -4.3494 -0.3050 0.6713 -0.2665 1.8466 1.6729 4.1321 -1.1552 3.3452 0.2563 -2.8803 2.8827 2.5987 0.2224 0.5849 -4.7396 -1.6042 -4.1113 0.4927 2.4834 -3.6530 -0.8901 2.0329 -3.5973 1.5797 1.5446 -2.1314 -0.9552 1.9006 -2.0778 1.5207 1.3716 2.5036 -1.8514 -1.9668 1.3709 1.7552 -1.3406 0.3738 -1.8652 -0.6476 2.1528 -0.3980 -2.3378 -1.6059 0.1239 0.9269 1.6114 0.3326 -1.0844 0.2908 -0.3548 -0.6030 -0.1418 0.1664 0.7143 2.0587 2.7600 -0.6743 1.3923 -3.9836 -1.0918 1.3914 -2.5196 -1.2217 2.4916 -5.3217 -0.1962 0.5023 -1.3157 2.1123 0.4603 0.3511 2.7257 1.7422 -0.1569 1.6531 2.3515 4.8743 -0.7242 0.6525 4.3568 -0.8338 1.7411 4.1887 -2.2451 3.0611 1.0912 -3.3926 3.7795 -0.3521 -3.5745 -3.7513 0.6867 3.5012 -5.2062 0.5228 2.5212 -4.1149 -1.1332 1.0679 -3.9949 -1.6460 2.7487 -3.8866 2.5651 1.9270 -4.0789 1.4663 0.5652 -1.8545 -1.9560 1.5518 -1.6945 -0.8284 2.8987 -1.5972 1.7984 2.3185 -1.7788 2.2714 0.6294 3.4021 -1.8740 -1.3348 2.7346 -2.4188 -2.8769 0.8638 1.9946 -2.1878 -0.4308 -2.4235 -0.1775 1.3824 -0.3967 -3.1207 -2.1015 -0.0735 -0.0339 2.3833 0.2586 -0.3090 -0.4726 -0.0745 -1.3443
2.1265 -4.1341 -2.1539 0.6279 -0.1535 1.8871 3.5205 3.1958 -0.0266 0.8831 -0.3408 -3.5374 1.5750 3.5570 -1.3712 2.7663 -3.9595 0.0353 -4.5239 0.5330 1.9937 -3.5314 -0.0760 2.9714 -4.1781 0.1705 0.5570 -2.0870 0.2618 2.6066 -2.7335 0.5351 0.2085 2.6300 -1.1417 -1.9985 1.9114 1.4540 -0.4238 0.7386 -1.7505 -0.4719 1.7959 0.0710 -2.4627 -1.7212 -0.1583 1.1554 0.9974 0.6973 -1.2915 0.1342 -0.3610 -0.5126 -0.3126 0.1782 0.8036 2.2365 2.7789 -0.6891 2.3074 -3.4765 -0.9869 1.8569 -2.0844 -1.1305 2.6822 -4.9408 -2.2081 0.3607 -1.0866 2.3973 0.6453 0.6593 2.6210 1.6620 -0.2740 1.5496 4.3632 2.6969 -0.5107 3.4978 2.9402 1.0357 3.6470 4.2771 -0.1222 1.4302 -0.6738 -4.3313 0.3775 0.4771 -3.8777 -4.5263 1.6237 2.1055 -5.5354 0.1849 2.2314 -3.6539 -1.1662 2.9901 -3.7464 0.2848 3.9844 -4.8629 0.6863 -0.1253 -4.3276 -0.9058 0.4042 -1.4498 -0.2411 3.3418 -1.9260 1.3412 2.7305 -2.6082 1.6244 0.2625 -2.5735 0.2540 -0.8362 3.5030 -0.7883 -1.4343 3.0288 -1.6690 -2.8747 2.6128 0.9015 0.0585 0.2032 -2.5003 0.1057 2.4823 0.8167 -2.8869 -1.8549 -1.2460 1.0735 0.2941 1.4390 -1.6960 -0.7450 -0.5116 -1.1500
1.9475 -4.6405 -1.4218 0.6369 0.1738 1.7230 2.1031 3.1286 -0.0555 3.1881 0.2946 -3.0970 1.7209 3.8724 -2.2916 2.0771 -4.0206 0.7718 -4.1816 0.5034 2.3638 -3.5707 -0.8756 2.1393 -3.8137 1.4659 1.2384 -2.0555 -0.7856 1.9672 -2.3007 1.5512 1.0260 2.6624 -1.7179 -1.8038 0.9989 1.7551 -1.7628 0.5504 -1.8084 -0.4627 2.1033 -0.4129 -2.4148 -1.6759 0.1607 0.8081 1.4625 0.4398 -1.2914 0.2530 -0.3416 -0.6744 -0.2294 0.3266 0.5562 1.6109 2.9611 -1.4706 1.9161 -3.7507 -0.4081 1.6637 -2.3963 -0.9190 2.1434 -5.5459 -1.0975 0.6091 -0.8361 2.1456 0.3489 0.8844 2.5051 1.6845 0.3857 1.4893 3.0843 2.6555 0.0457 1.3997 2.6955 0.6568 2.2041 4.1936 0.1771 2.7984 1.0801 -3.6175 3.5990 -0.3201 -3.8008 -3.8293 0.9088 3.3204 -5.2719 0.4163 2.4361 -4.0167 -1.3359 1.2492 -3.8076 -1.5269 2.9882 -4.2128 2.4622 1.4600 -4.2910 1.1333 0.3084 -1.6588 -1.7904 1.7862 -1.6265 -0.4323 2.9131 -1.8436 2.0413 1.8949 -2.1017 2.1929 0.1586 3.5582 -1.5043 -1.2072 2.9674 -2.3946 -2.6116 0.4748 1.7408 -2.6332 -0.1567 -2.3774 0.1356 1.3402 -0.6580 -3.1655 -2.1543 -0.2510 -0.0916 2.2393 0.6008 -0.5368 -0.5474 -0.3015 -1.4288
2.1117 -4.3661 -2.2805 0.8342 -0.4807 1.8132 1.2026 3.4237 -0.2525 1.2817 -0.1908 -3.6455 2.6365 2.5695 1.4537 2.3688 -4.2450 -0.0157 -4.1069 1.0599 2.0050 -3.3628 -0.0159 2.7841 -3.7384 1.0320 0.5279 -1.8522 0.0537 2.5562 -2.2272 1.1121 0.3206 2.7550 -1.4245 -2.0736 2.3299 1.2485 -0.3993 0.7405 -1.8426 -0.6527 2.1418 -0.0614 -2.4640 -1.4794 -0.0261 1.0529 1.3579 0.6009 -1.2991 0.3480 -0.3811 -0.5983 -0.0258 0.0882 0.7680 2.1095 2.3861 0.3558 2.1340 -3.7218 -1.0936 1.8342 -2.2921 -1.2783 2.4167 -5.2951 -2.1914 0.5038 -1.4774 2.1282 0.8504 0.1753 2.6889 1.8778 -0.5762 1.4931 0.1652 3.0868 -0.1899 1.4739 3.6109 -1.2941 1.2923 4.3623 0.3031 0.4418 -0.7182 -3.4193 1.7672 -0.7150 -4.3720 -3.8671 2.0453 2.4229 -5.1877 0.9192 2.1194 -3.7304 -1.0055 2.4856 -3.5780 0.0931 3.8535 -4.2231 1.8701 0.0144 -4.1212 0.1114 0.0702 -1.3976 -0.7699 3.1182 -1.4695 0.9890 2.9857 -1.8677 2.0831 0.6852 -2.0328 1.0908 -0.7569 3.6619 -1.2568 -1.4804 3.0827 -1.9529 -2.9783 3.1085 0.6706 -0.0977 0.0953 -2.5399 -0.1205 2.9682 0.5969 -2.7620 -1.8450 -0.9911 0.6750 0.7665 1.4190 -1.7291 -0.5459 -0.3521 -1.2365
1.1344 -4.4049 -0.0025 -0.2790 1.9858 0.9653 3.1784 3.8951 -0.0810 2.4261 0.4115 -3.2675 4.4804 1.9180 -0.4443 -0.0488 -4.1609 -1.9344 -4.0831 -0.5974 2.0466 -2.7881 -1.2601 2.4979 -4.0684 -0.3299 0.5433 -1.6040 -0.3708 2.1486 -2.8765 0.5466 0.1390 1.6509 -1.6683 -2.2155 2.1864 1.8470 -0.8378 0.7744 -1.5746 0.1318 1.5697 -0.1305 -2.2103 -1.5483 -0.0710 0.6326 1.9753 0.4033 -0.8166 0.9475 -0.0570 0.2751 -0.3476 0.7109 0.2314 3.3751 2.4524 -0.4636 0.6458 -3.6947 -1.0437 1.0578 -2.2758 -0.9789 0.7821 -5.3217 0.0029 0.5743 2.6013 0.6896 -0.2085 1.8566 2.0491 -1.1519 2.6087 0.7457 4.1477 4.3573 0.1255 2.5595 3.9619 0.8177 2.6996 4.4375 -0.9013 2.3275 -0.1413 -4.1174 3.4035 0.3435 -2.9881 -4.2071 0.3526 2.5820 -4.9355 -1.2308 2.3109 -2.6735 -2.2413 2.0211 -2.8100 -1.4272 3.5805 -5.0043 0.1556 0.2468 -4.0182 -1.2846 0.0041 -0.6825 -0.8504 2.4933 -1.7062 0.5558 2.7243 -3.0309 1.5501 0.5496 -2.8605 0.6455 -0.9540 2.6998 -1.9916 -2.2719 1.1529 -2.0538 -3.1137 1.4625 2.4186 -1.2637 0.3457 -2.0971 0.9835 0.5404 0.1783 -2.4338 -1.5243 -1.0296 0.1015 2.9452 -0.0456 -0.5546 1.4145 0.1169 1.2549
3.2142 -3.7175 -0.2905 0.8050 -0.0486 1.6732 2.7766 3.3035 0.4585 0.8297 -0.5169 -3.7787 0.6228 3.3131 -0.5786 1.6476 -4.5084 -1.7591 -4.2852 0.7254 2.0530 -3.3469 -0.1554 2.8656 -4.0017 0.6087 0.5612 -1.8810 0.1168 2.5316 -2.5337 0.8897 0.2389 2.5914 -1.3064 -2.2327 1.9857 1.4390 -0.8399 0.7460 -1.7733 -0.6067 1.7744 -0.0994 -2.7360 -1.5838 -0.0496 1.0197 1.0245 0.6176 -1.5848 0.1872 -0.3666 -0.6898 -0.1796 0.2356 0.6236 1.6698 2.7062 -0.3673 2.1897 -3.5932 -1.1619 1.8237 -2.1761 -1.2906 3.4363 -4.6582 -0.1205 0.6453 -1.0268 2.1404 0.7634 0.7240 2.4482 1.8344 -0.0432 1.3021 3.5857 3.6310 -0.1996 3.1557 2.5749 1.1801 2.3937 4.1689 1.0075 0.2144 -1.2481 -3.4265 1.3448 -0.9280 -4.5567 -4.1692 1.7699 2.3668 -5.3244 0.4439 2.2567 -3.5733 -1.2111 2.6714 -3.5169 0.0145 3.9350 -4.6406 1.3086 0.0110 -4.2629 -0.3998 0.2168 -1.2780 -0.5756 3.1290 -1.6228 1.1342 2.8539 -2.3038 1.9360 0.4805 -2.3993 0.7831 -0.8430 3.4892 -0.9478 -1.7129 2.9485 -1.8959 -3.0870 2.7752 0.9552 -0.4220 0.2008 -2.4823 0.0135 2.4711 0.6053 -3.2084 -1.8257 -1.0883 0.7551 0.3203 1.3302 -2.0376 -0.7386 -0.5188 -1.2625
3.8805 -3.5780 -0.7236 0.5945 -0.8617 1.9478 2.2795 3.3113 0.0999 2.0313 0.6415 -3.5056 0.2284 3.0481 -1.0867 2.0904 -4.7680 -1.5045 -4.0469 1.3766 2.0286 -3.5273 0.1890 2.8271 -3.6919 1.2471 0.5552 -2.0266 -0.0173 2.6225 -2.1957 1.0305 0.3505 2.5108 -1.3969 -2.2481 1.5478 1.1619 -0.7073 0.9025 -2.1875 -0.4982 1.4290 -0.3923 -2.6602 -1.6551 -0.1902 1.1290 0.7004 0.2106 -1.4338 0.1045 -0.8944 -0.4913 -0.2043 -0.3201 0.8508 1.2351 2.5130 -0.6273 2.6183 -3.7152 -1.1874 1.9807 -2.3917 -1.2676 4.3559 -4.4359 -0.6987 1.6514 -0.9590 1.6756 0.2308 -1.8442 2.2704 0.5857 -0.1903 2.8128 3.1185 3.5046 -0.5734 2.6256 2.7792 0.9895 1.8478 4.2677 0.4112 1.3093 1.2851 -3.8262 2.4146 0.2107 -4.3467 -3.6167 2.3032 2.4284 -5.1340 1.4538 2.1411 -4.0645 -0.7191 2.5278 -3.7338 0.3462 3.8920 -4.0056 2.1511 0.0207 -4.2436 0.4080 0.1142 -1.7292 -0.9011 3.1986 -1.4930 0.8441 3.0456 -1.6585 1.9353 0.6645 -2.0271 0.9139 -0.7239 3.3721 -0.8844 -1.8011 2.8784 -1.9178 -3.1420 2.4632 0.8457 -0.4011 0.5415 -2.9893 0.1435 0.6816 -0.9219 -3.2675 -2.1711 -1.0930 0.7744 -0.1446 0.7863 -1.8308 -0.8403 -1.1950 -0.9685
-0.0605 -4.1421 -1.6098 -0.2827 1.9492 0.4493 2.7858 3.8163 0.2753 2.7790 0.1647 -3.1916 4.0034 1.8319 0.8409 1.6544 -4.6428 -0.1761 -4.0967 -0.2874 2.0740 -2.8101 -0.7782 2.7293 -4.0354 -0.4277 0.5560 -1.5883 -0.0478 2.1757 -2.8282 0.3065 -0.0309 1.8863 -1.8363 -2.1301 2.3717 1.7111 -0.8120 0.8732 -1.6700 0.1663 1.8188 -0.2986 -2.1861 -1.5099 -0.1489 0.6363 2.1119 0.2763 -0.7782 0.9880 -0.1519 0.2403 -0.3313 0.5390 0.0431 3.1342 2.3566 0.1495 1.0025 -3.8450 -0.8278 1.2528 -2.3970 -0.8950 -0.2666 -5.1009 -1.6105 0.0376 2.5670 -0.3924 0.3865 2.1130 1.3005 -1.2526 2.3618 0.7423 3.5255 4.3164 0.9063 1.8037 3.9261 0.7410 2.7812 4.2941 -0.7083 2.6909 1.1740 -3.3039 2.5369 -0.2361 -4.0981 -4.2641 0.7641 2.3391 -4.9484 -0.8554 2.4642 -2.6986 -1.8567 2.5627 -2.8677 -0.6255 3.8132 -4.9572 -0.0338 0.1131 -3.9808 -1.4903 0.2882 -0.6855 -0.4710 2.6306 -1.6429 0.9982 2.4992 -2.9924 1.3825 0.0897 -2.7834 0.1140 -1.1101 2.9348 -2.1668 -2.1419 1.4166 -2.2561 -3.0271 1.8926 2.2646 -1.5165 0.4423 -2.1708 1.0308 0.8183 0.0143 -2.5099 -1.4619 -1.2150 0.3890 3.0574 -0.1752 -0.4369 1.3585 0.0855 1.2472
1.0828 -4.4516 -1.7470 0.5552 -0.2583 2.0203 2.1032 4.2434 -1.3927 1.7777 -0.0228 -3.2250 3.7415 2.6288 -0.7412 2.4741 -4.3237 0.0622 -4.2656 0.2849 2.2673 -3.7200 -1.0553 1.7886 -3.7196 1.4417 1.4364 -2.1921 -1.0530 1.7711 -2.1909 1.4453 1.3887 2.8448 -1.6153 -1.6456 1.5280 1.9387 -0.9875 0.6036 -1.7583 -0.5213 2.5213 -0.1422 -1.9665 -1.6305 0.0962 0.9019 1.7603 0.5050 -0.7809 0.4259 -0.2551 -0.4596 -0.1543 0.2017 0.8283 2.5657 2.8626 -1.0107 1.8137 -3.7978 -0.8190 1.7049 -2.3453 -1.0081 0.8843 -5.3700 -1.4628 0.4109 -1.3274 2.2119 0.2191 0.2952 2.9033 1.6334 -0.0911 1.9516 1.5846 4.6990 -0.5450 1.4371 4.2025 -2.2585 2.9686 4.8619 -1.6503 1.0211 -0.7040 -3.2563 2.3955 -0.2506 -4.0037 -3.9953 0.4318 3.3203 -5.3602 0.2774 2.2169 -4.1017 -1.2755 0.7844 -4.0781 -1.8539 2.4488 -4.0755 2.3906 1.8529 -4.1139 1.3731 0.4150 -1.8429 -2.0223 1.4010 -1.8471 -0.9581 2.8080 -1.8051 1.6760 2.3901 -1.8591 2.2524 0.7237 3.6968 -1.6433 -0.9536 3.1665 -2.1377 -2.5552 0.6350 2.2100 -1.3894 -0.1945 -2.3730 -0.1140 3.4746 0.3786 -2.1152 -2.0333 -0.0591 -0.1088 2.4298 0.4423 0.0860 -0.2806 0.0058 -1.2606
0.8965 -4.5620 -1.7100 0.7356 -0.0913 1.8618 1.3122 4.1079 -0.7652 1.8772 -0.3094 -3.3844 2.6256 2.7066 0.6587 2.1977 -4.4227 0.1645 -4.0809 0.4131 2.2591 -3.5168 -0.9561 1.8964 -3.6066 1.4879 1.2852 -1.9915 -0.9138 1.8220 -2.0807 1.5298 1.1709 2.8289 -1.8500 -1.7037 1.7387 1.8061 -1.2962 0.5677 -1.7755 -0.6117 2.6095 -0.3792 -2.1142 -1.4972 0.1501 0.8131 1.8816 0.3832 -0.9768 0.5038 -0.2640 -0.6072 -0.0274 0.2795 0.6706 1.9702 2.8137 -0.3739 1.6243 -3.9057 -0.7814 1.6288 -2.4626 -1.0543 0.6473 -5.4611 -1.4043 1.7919 0.1738 1.7776 0.6890 -1.1638 2.0808 0.3683 0.4536 2.7372 0.2338 4.0338 -0.6023 1.5128 4.3358 -1.8153 1.7094 4.9226 -0.1529 2.3990 -0.8160 -4.1008 1.8529 0.6592 -3.7032 -3.7663 0.6770 3.2765 -5.1760 0.3721 2.2642 -3.9274 -1.2860 0.9343 -3.8295 -1.6927 2.6460 -3.9793 2.4661 1.6103 -4.0380 1.2957 0.2947 -1.6218 -1.9076 1.5484 -1.6147 -0.6975 2.8292 -1.6606 1.8865 2.1204 -1.8043 2.2641 0.4036 3.6622 -1.9014 -0.9902 3.1301 -2.4464 -2.5745 1.4694 2.0620 -2.2413 -0.2782 -2.3126 -0.1936 3.5936 0.0780 -2.2802 -1.9303 -0.1240 -0.1595 2.5657 0.3248 -0.1222 -0.1964 0.0185 -1.4065
1.7217 -4.0790 0.3832 0.7041 -0.0671 1.6852 1.4489 3.4776 -0.9777 3.1522 0.3664 -3.2375 2.6813 2.8071 0.9557 1.7091 -4.6700 -1.8286 -4.0700 0.4969 2.4646 -3.5390 -0.8746 2.0699 -3.6965 1.5465 1.4224 -2.0259 -0.8334 1.8793 -2.1816 1.6089 1.1932 2.5958 -1.6763 -1.9898 2.3470 1.2146 -0.6666 0.4775 -1.7624 -0.6695 2.0629 -0.3543 -2.5740 -1.6089 0.2229 0.8300 1.3586 0.5320 -1.5115 0.2470 -0.2697 -0.7426 -0.1508 0.3289 0.5596 2.2021 2.4828 -0.1318 1.6636 -3.8274 -0.9472 1.5539 -2.3760 -1.1759 1.6713 -5.0373 0.5815 0.5185 -1.0905 2.0293 0.5600 0.6112 2.5326 1.7688 -0.0303 1.4425 1.5719 4.4789 -0.5544 0.3824 3.2346 -0.9740 1.8330 3.4813 -2.0019 2.7884 1.2181 -3.6613 3.5199 -0.1946 -4.0048 -3.6570 0.7843 3.4398 -5.1588 0.4534 2.5755 -4.0180 -1.2071 1.1403 -3.7917 -1.6084 2.8437 -4.0653 2.5282 1.7398 -4.1966 1.3084 0.4746 -1.6892 -1.8290 1.5689 -1.5695 -0.6190 2.8540 -1.6971 2.0024 2.0956 -1.9794 2.3206 0.3823 3.4852 -1.5100 -1.3693 2.9049 -2.3244 -2.8216 3.0312 0.6193 -0.2091 -0.2854 -2.3522 -0.1670 1.3185 -0.6008 -3.3438 -2.1245 -0.0671 -0.0947 0.8395 1.3210 -2.0678 -0.6143 -0.1854 -1.4210
3.6542 -3.0475 -0.0453 0.5897 -0.8502 1.9815 2.8060 2.7780 0.2931 1.2310 0.7850 -3.8081 3.0304 0.4138 0.1321 3.3502 -3.9444 -2.1281 -4.1772 1.2477 1.9249 -3.4102 0.4288 2.9507 -3.9263 0.7187 0.5220 -1.9174 0.3865 2.6311 -2.4350 0.6661 0.1963 2.2912 -1.0621 -2.5566 1.2449 1.4585 -0.9577 1.1012 -1.9594 -0.5341 1.0114 -0.2512 -2.7988 -1.6376 -0.1855 1.2153 0.4509 0.3319 -1.4798 0.1052 -0.8102 -0.4584 -0.1816 -0.2318 0.8925 2.3869 1.4108 -0.1773 3.0786 -3.1222 -1.2694 2.1030 -2.0284 -1.4254 4.1986 -3.8365 0.1597 0.1614 -1.8135 2.2841 0.6241 -0.1962 2.8587 1.6416 -1.0120 1.7282 2.1668 3.0881 1.1235 2.7424 3.5038 -0.5220 3.8419 2.7385 0.6401 0.3284 1.0822 -4.1800 1.7295 0.3876 -4.6040 -3.8676 2.2985 1.9841 -5.2488 1.2126 2.1489 -3.8022 -0.5959 2.9708 -3.5626 0.8500 3.9506 -4.4417 1.3504 -0.2099 -4.3497 -0.2894 0.4286 -1.4468 -0.2268 3.4068 -1.4961 1.3978 2.7160 -2.0313 1.6871 0.1650 -2.3540 0.2538 -0.8130 3.1435 -0.4064 -2.3430 2.5440 -1.6096 -3.4736 0.8333 2.3744 -1.1155 0.9844 -2.7599 0.1935 0.2514 -0.9339 -3.2062 -2.0296 -1.2115 1.1868 -0.4964 0.8178 -1.7460 -0.8141 -1.2843 -0.8327
3.5478 -3.6705 -2.0415 0.6639 -0.6386 1.9834 2.4968 2.9266 0.5943 0.2064 -0.7939 -3.5919 3.2050 0.7429 -0.0506 3.9311 -2.8335 0.0444 -4.2140 1.1999 1.8276 -3.4261 0.4450 2.8863 -3.9194 0.6485 0.4421 -1.9286 0.4502 2.5852 -2.4232 0.6495 0.1386 2.4278 -0.9408 -2.5220 1.2259 1.6092 -0.9386 1.2494 -1.8031 -0.4746 1.1915 -0.0611 -2.7837 -1.6035 -0.1417 1.1871 0.5239 0.4348 -1.4800 0.1942 -0.7097 -0.4573 -0.1461 -0.1153 0.8755 2.3635 1.6282 -0.1539 3.3247 -2.8227 -1.0161 2.2622 -1.8598 -1.3515 4.3284 -4.2388 -1.8635 0.3233 -1.6332 2.2969 0.6302 0.0276 2.8507 1.7284 -0.6990 1.7347 3.4284 2.9247 1.1669 1.6558 3.0461 1.2823 2.5221 3.7620 -0.1115 -0.0726 -1.6507 -3.1170 0.6315 -1.0799 -4.4730 -3.9546 2.2651 1.8638 -5.2865 1.1224 2.0369 -3.7795 -0.5924 2.9374 -3.6066 0.8924 3.8702 -4.4472 1.2424 -0.3124 -4.3013 -0.3772 0.3659 -1.4438 -0.1258 3.3809 -1.5482 1.4786 2.6517 -2.0624 1.6857 0.0897 -2.3074 0.2200 -0.8605 3.3001 -0.2989 -2.3531 2.6626 -1.5224 -3.4232 0.8303 2.5086 -1.1983 1.1831 -2.5609 0.3036 1.5055 0.8027 -3.3838 -1.9424 -1.1868 1.1781 -0.4363 0.8768 -1.7777 -0.6938 -1.2334 -0.8386
2.2267 -4.2912 -1.3932 -0.7304 1.9738 0.1582 3.1559 3.2161 -0.2292 2.6481 0.7440 -3.1702 4.1020 1.7986 1.4462 -0.0476 -4.1411 -1.4896 -4.2138 -0.1645 2.4892 -2.8568 -0.5665 3.0522 -4.3054 -0.5048 1.0075 -1.7049 0.1045 2.2983 -3.1788 0.1411 0.2004 2.0227 -1.4644 -2.2801 3.0344 0.7641 -0.3151 0.7011 -1.5681 -0.1475 1.7044 0.0336 -2.3020 -1.7728 -0.1613 0.7771 1.6791 0.6624 -0.8895 0.6732 -0.0574 0.0873 -0.7165 0.5133 -0.0315 3.4713 1.8751 0.3917 1.0510 -3.6254 -1.3565 1.2804 -2.1754 -1.1960 2.1046 -5.2108 -1.7164 -0.5388 2.4782 -0.7957 0.0197 2.3019 0.8861 -1.6903 2.3710 0.4998 2.2433 3.6128 0.2267 3.0239 3.1499 -1.3119 3.9773 3.9104 -0.0327 2.7110 0.2819 -4.0758 3.5817 0.7051 -2.7615 -4.3774 0.9101 2.6396 -5.0101 -0.6854 3.0339 -2.7484 -1.6565 2.9899 -2.8095 -0.3013 4.1145 -5.2729 -0.1690 0.6169 -4.2698 -1.5936 0.8802 -0.7594 -0.2760 2.7029 -1.7337 1.1790 2.5131 -3.3752 1.2175 0.1662 -3.2336 -0.2209 -0.8341 3.0976 -1.6398 -2.1379 1.7609 -1.8986 -3.2535 3.4631 -0.1138 -0.0359 0.1956 -2.1849 0.5930 0.7054 0.1592 -2.7391 -1.6728 -1.2442 0.6518 1.3664 1.6942 -1.0438 1.0179 0.1173 1.1160
0.9369 -4.7150 -0.3456 0.6841 -0.7011 1.8815 1.0302 4.0085 -0.9507 3.1883 0.2894 -3.0844 2.0742 2.5293 0.6037 2.6590 -4.7134 -1.8224 -3.9411 0.6597 2.3629 -3.7899 -0.2876 1.1783 -2.9765 1.8361 2.2557 -2.3505 -0.7840 1.0285 -1.5290 1.3677 2.1104 2.5724 -1.8690 -2.1219 1.2393 1.6459 -1.3833 0.5782 -2.0410 -0.6327 2.1001 -0.4381 -2.4308 -1.3559 0.3889 0.9323 1.6077 0.2472 -1.1357 0.3828 -0.5373 -0.5790 0.0494 -0.0158 0.7634 1.5117 2.6625 -0.4810 1.7939 -4.1126 -1.2018 1.5909 -2.6412 -1.2799 1.1005 -5.6795 -0.2720 0.1927 -1.6469 2.1314 0.6966 -0.0783 2.7801 1.7360 -0.9188 1.6624 1.8968 4.6378 -1.1681 0.4411 4.4725 -0.1556 0.4088 3.9341 -1.8459 3.9781 0.3875 -2.4486 2.8806 1.2343 -3.3106 -3.7568 0.1134 3.2962 -4.9710 1.0313 2.4074 -4.0916 0.2302 0.2590 -4.4657 -1.1425 1.2964 -3.0688 2.4712 3.1446 -3.2483 2.4546 1.3914 -2.2959 -1.4053 0.1268 -2.1069 -1.4302 1.8799 -1.2290 0.8996 3.0553 -0.8832 2.2427 1.9642 3.5353 -1.8499 -1.5938 2.7362 -2.3940 -3.0715 1.0039 1.8989 -2.3383 -0.1526 -2.6283 -0.0837 1.2676 -0.4845 -3.1457 -1.6346 0.9652 0.0380 2.4319 0.2406 -0.4078 -0.4580 -0.3350 -1.2591
3.5259 -3.7223 -0.8000 0.3822 -0.0305 1.8992 3.3058 3.3126 -0.9479 2.3057 0.4313 -3.5741 1.1956 3.3460 -2.0622 1.5225 -4.4252 0.0109 -4.3623 0.1432 2.4634 -3.9743 -0.9387 1.4639 -3.8098 1.4995 2.0388 -2.4585 -1.0178 1.2910 -2.2907 1.4586 1.8644 2.4577 -1.4353 -1.9779 1.7968 1.4252 -0.8773 0.6549 -1.7573 -0.2925 1.5469 -0.3635 -2.6057 -1.8500 0.3449 0.8897 0.8473 0.5122 -1.5310 0.0357 -0.3958 -0.5376 -0.3786 0.3273 0.6965 1.9874 2.7164 -1.3631 2.2136 -3.5656 -0.5131 1.7554 -2.2123 -0.9059 3.8369 -4.6260 -0.5783 0.1622 -1.0405 2.2612 0.1846 0.6582 2.7249 1.4619 0.0203 1.7204 3.1135 4.2100 -0.3527 3.8673 3.5976 -1.8428 3.9064 2.6148 -0.3596 2.7661 -0.1897 -4.2393 3.0554 0.9303 -3.0959 -3.9775 -0.1188 3.4571 -5.4535 0.1959 2.5467 -4.4428 -0.7290 0.4944 -4.3575 -1.9088 1.8008 -4.0740 2.2541 2.7883 -4.2783 1.8068 1.0960 -2.2406 -1.7742 0.5287 -2.0247 -1.3755 2.2317 -1.8457 1.3132 2.8549 -1.9456 2.4329 1.4971 3.3580 -0.9779 -1.5483 2.7881 -2.1206 -2.7692 1.8971 1.3236 0.1266 0.1350 -2.3943 0.4195 0.7589 -0.8792 -3.1712 -2.2962 0.6207 -0.0769 0.1089 1.1496 -2.0378 -0.8733 -0.6463 -1.1060
0.5262 -3.9480 -2.0506 -0.4579 2.0753 0.6774 3.5216 3.2137 -0.6654 0.6789 0.3738 -2.9132 4.7316 2.0297 1.0200 1.5882 -4.3302 -0.0631 -4.1862 -0.5205 2.1009 -2.8668 -1.0183 2.6813 -4.1346 -0.4755 0.5770 -1.6882 -0.1642 2.2134 -2.9634 0.3710 0.0711 2.0783 -1.4684 -2.1015 3.2473 0.8071 -0.2441 0.8715 -1.4426 0.0998 1.9000 0.0572 -2.1653 -1.6165 -0.0933 0.6734 1.8725 0.7266 -0.7723 0.8818 0.0682 0.2530 -0.4765 0.7017 0.1484 3.8882 1.9792 0.1242 1.2016 -3.5744 -0.9387 1.3838 -2.1098 -0.9432 0.4845 -4.9226 -2.1526 -0.0267 2.7635 -0.0558 0.1203 2.1561 1.6047 -1.4553 2.4716 0.8861 2.6178 3.6587 -0.2376 3.3603 2.9761 -1.7203 4.3276 3.9502 -0.6011 0.5458 1.3844 -2.9283 -0.1317 -0.0149 -2.4344 -4.4093 0.4796 2.4930 -5.0012 -1.1787 2.4231 -2.7060 -2.0602 2.3769 -2.9163 -1.0111 3.7760 -5.0757 -0.0713 0.1868 -4.0427 -1.4972 0.1886 -0.7638 -0.5897 2.6201 -1.7932 0.8386 2.6443 -3.1716 1.4178 0.3153 -2.9220 0.3023 -1.0230 3.1466 -1.7091 -2.0290 1.7341 -1.9131 -3.0444 3.6440 -0.0519 0.1255 0.4034 -2.0041 0.9071 2.7376 0.4649 -2.7472 -1.5222 -1.1220 0.3076 1.5693 1.7617 -0.9292 1.2648 0.2620 1.2653
1.9570 -4.5349 -2.2084 0.3674 -1.0275 2.0978 1.5814 4.0839 -1.2859 1.4636 -0.1662 -3.1644 3.4148 2.6164 -0.8523 2.2886 -4.5471 0.0520 -4.1397 0.7012 2.2105 -3.9137 -0.1423 0.9601 -3.0840 1.7941 2.3443 -2.5071 -0.7428 0.9318 -1.6703 1.2146 2.3139 2.8445 -1.6521 -1.7555 1.2603 1.7292 -0.8671 0.6974 -2.0414 -0.5136 2.3552 -0.2122 -1.9984 -1.4287 0.3499 1.0587 1.6464 0.3194 -0.7277 0.4084 -0.5588 -0.3510 -0.0458 -0.1571 1.0032 2.1995 2.7439 -0.9853 2.0418 -3.9604 -0.9896 1.8125 -2.5115 -1.0917 2.3168 -5.4481 -2.2000 -0.2044 -1.9609 2.1307 0.2596 -0.5375 3.0692 1.4303 -1.2828 2.0169 1.5746 4.6827 -0.3712 0.5600 3.9914 -1.6639 2.1856 4.5940 -2.0418 1.9806 -0.4412 -3.9987 1.1721 0.7978 -3.3243 -4.1117 0.0548 3.0965 -5.1370 1.1539 2.1770 -4.0641 0.4793 0.0686 -4.6581 -0.9454 0.9175 -3.2360 2.3382 3.2836 -3.2008 2.5209 1.5314 -2.3823 -1.2985 -0.0048 -2.4192 -1.4680 1.7494 -1.5348 0.6221 3.2261 -0.9430 2.0348 2.3510 3.7345 -1.6230 -1.1137 3.1612 -2.1013 -2.7053 0.3459 1.8923 -1.2774 -0.0283 -2.7359 -0.0957 3.2285 0.4069 -2.2340 -1.5596 1.0313 0.2054 2.3693 0.2842 0.1010 -0.3891 -0.3402 -1.0753
2.2592 -3.7117 0.7947 0.3701 0.4833 1.6646 3.2534 3.0047 -0.4639 2.0781 0.2558 -3.8915 3.3258 0.6398 -0.1929 3.8343 -3.5552 -0.8311 -4.3148 0.0709 2.4248 -3.7992 -1.1238 1.6314 -3.9751 1.3817 1.7240 -2.2931 -1.0280 1.3881 -2.4739 1.5107 1.4719 2.4291 -1.4712 -2.1865 1.5262 1.5934 -1.3445 0.9017 -1.5938 -0.2081 1.4283 -0.4859 -2.8102 -1.9024 0.2995 0.7029 0.7317 0.4333 -1.7779 0.0663 -0.4061 -0.6412 -0.4497 0.4541 0.4540 2.7212 1.6057 -0.6469 2.7878 -3.1726 -0.3281 1.9731 -2.0537 -0.8741 2.8877 -4.3114 1.2502 0.3028 -0.4384 2.2503 0.0953 1.3150 2.3183 1.4249 0.6381 1.4346 3.8977 3.2565 -1.3101 3.8420 3.0513 0.4571 2.4431 3.7351 -0.3858 2.7902 0.8737 -3.5047 1.3974 0.8580 -4.3520 -3.8733 0.0633 3.4296 -5.4000 -0.0097 2.5522 -4.3226 -1.1776 0.6691 -4.0265 -2.0505 2.1708 -4.3163 2.2242 2.3365 -4.5133 1.4395 0.7705 -1.9872 -1.8805 0.7708 -1.7834 -1.1319 2.3528 -1.9863 1.6216 2.4468 -2.2807 2.4326 0.9096 3.4059 -0.9943 -2.0444 2.5945 -2.2894 -2.9008 1.0226 2.4745 -1.3835 0.5719 -2.0893 0.7006 0.6374 -1.0903 -3.2771 -2.4051 0.3143 -0.2753 -0.0988 0.9171 -2.3161 -0.7980 -0.8825 -1.1296
2.0452 -4.0596 -0.9500 -0.8545 2.1896 0.7644 4.7448 2.7319 -0.5306 2.0174 0.8173 -3.3129 2.5743 3.4160 0.1912 -0.1963 -3.8576 -0.5879 -4.2082 -0.9104 2.1682 -2.8218 -1.3200 2.6478 -4.2377 -0.7490 0.6508 -1.7924 -0.2805 2.2235 -3.1983 0.2721 0.1743 1.6431 -1.3056 -2.1030 2.8513 1.2318 -0.5786 0.7903 -1.1943 0.2478 1.2722 0.1788 -2.2270 -1.7888 -0.0930 0.6930 1.4469 0.9742 -0.9166 0.6724 0.3253 0.2741 -0.7375 0.8310 0.2182 3.2812 2.5153 -0.2563 0.9068 -3.3603 -0.7572 1.1661 -1.9083 -0.8228 1.8646 -5.0243 -0.9925 -0.8649 2.2139 1.8574 -1.7607 2.6781 0.3926 -0.0254 2.8362 0.4616 4.8686 3.1157 -1.5471 5.3130 1.8061 -0.4127 5.1364 3.4724 0.1750 1.9297 0.2654 -4.1637 3.0097 0.8371 -3.0788 -4.4869 0.0401 2.6400 -4.9458 -1.6549 2.4835 -2.5534 -2.3006 2.2348 -2.8177 -1.4144 3.7389 -5.2397 -0.4397 0.3344 -4.0383 -1.7183 0.1764 -0.8055 -0.5869 2.5841 -2.0337 0.6606 2.7307 -3.5048 1.2659 0.5187 -3.2006 0.2958 -0.9231 2.7307 -1.4399 -2.1536 1.2149 -1.8485 -2.9554 3.4272 0.4479 -0.2858 0.4587 -1.7255 1.1379 0.2084 0.2285 -2.4951 -1.6106 -1.0748 0.2362 1.0280 1.9652 -1.1268 1.1217 0.6540 1.2221
2.7302 -4.2448 -1.1840 0.3813 0.0117 1.9470 3.3377 3.4882 -0.7855 1.0480 -0.7353 -3.5086 1.3765 3.3797 -2.1409 2.7701 -3.5026 0.9716 -4.3891 0.0521 2.2670 -3.9155 -1.0273 1.3025 -3.8654 1.4216 1.8483 -2.3909 -1.0579 1.2101 -2.3381 1.4346 1.7497 2.7391 -1.2897 -1.7900 1.8629 1.5779 -0.7351 0.8179 -1.6936 -0.2428 1.8999 -0.1740 -2.4524 -1.8075 0.3189 0.8223 1.0241 0.5967 -1.4320 0.1746 -0.3517 -0.5108 -0.3289 0.3458 0.7072 2.0861 2.8332 -1.2990 2.5323 -3.3276 -0.2141 1.9829 -2.0812 -0.7725 3.0980 -5.0766 -0.8136 0.1907 -1.0114 2.2898 0.1080 0.6819 2.7668 1.4651 0.1169 1.8271 4.2076 3.0513 -1.2825 3.4229 3.3666 0.2968 3.3032 4.5586 -1.0135 1.6396 -1.1410 -4.2336 0.5517 0.0289 -3.9691 -4.0422 -0.1821 3.2814 -5.4842 0.0660 2.2982 -4.3395 -0.8437 0.3076 -4.2840 -2.0058 1.6308 -4.1946 2.1771 2.5708 -4.2981 1.6969 0.8788 -2.1083 -1.8141 0.4693 -1.9949 -1.3911 2.1763 -1.9361 1.3298 2.7637 -2.0136 2.4138 1.3763 3.6132 -0.8444 -1.2993 3.1313 -1.9585 -2.5677 1.9561 1.4965 0.2714 0.2981 -2.3556 0.4472 2.5962 0.5179 -2.9445 -2.2098 0.5655 -0.1708 0.2883 1.2002 -1.9830 -0.6929 -0.6183 -1.1328
0.5633 -3.6893 -2.7691 0.8270 -0.9487 2.1486 2.8064 3.4342 -0.3984 0.8000 0.8766 -3.1055 4.2786 2.2200 1.0293 2.4366 -4.0854 -1.5160 -4.2708 0.2919 1.1673 -3.4617 1.4585 1.7240 -3.6924 -1.0405 1.6260 -1.9871 1.3669 1.3307 -2.2342 -1.1763 1.1985 2.3006 -0.9228 -2.2970 2.4833 1.0597 0.2109 0.5605 -1.6060 -0.6325 1.8412 0.5404 -2.1280 -1.3694 0.0028 1.6983 1.3414 0.8646 -0.6945 0.3011 -0.1909 -0.1670 0.0525 -0.0514 1.2870 3.2605 2.1957 0.3342 1.5641 -3.3402 -1.9289 1.4496 -1.9162 -1.5810 0.2837 -4.6211 -2.6389 0.3343 -1.9166 2.2932 0.9618 -0.4922 3.1350 1.8290 -1.1547 1.7612 1.9027 3.8332 0.0690 2.6244 3.2317 -1.4552 3.5911 4.1957 -0.3407 -0.0417 0.3311 -2.9331 1.1170 0.6344 -4.0435 -4.2716 0.3339 0.0709 -5.3136 0.3736 1.4923 -3.5483 1.4734 2.8171 -3.8799 2.4027 1.3573 -4.2768 -1.8639 1.1997 -3.7680 -1.1247 2.7167 -1.4339 2.1708 1.8328 -1.9068 1.5568 0.2543 -2.2145 -1.2434 0.1052 -1.8435 -2.1253 1.5835 3.3248 -1.0196 -1.9150 2.3492 -1.1778 -3.3641 2.8732 0.2229 0.6304 -0.0425 -2.3956 -0.1897 2.7033 1.1718 -2.3734 -1.3942 -0.0424 2.7975 0.8148 1.8283 -0.7051 -0.6251 0.0735 -0.6943
0.2502 -3.9220 -0.9271 -0.9498 2.0982 0.3022 4.6102 2.7707 0.0918 2.3383 0.6279 -3.3609 2.4062 3.5581 -0.3604 2.4385 -4.0826 -0.2675 -4.2374 -0.7435 2.2235 -2.8499 -0.9805 2.8100 -4.2278 -0.9129 0.7076 -1.8092 -0.0538 2.1823 -3.1934 -0.0035 0.0402 2.0069 -1.4093 -2.0477 2.8440 1.2751 -0.5906 0.8807 -1.2373 0.1897 1.5199 0.0191 -2.3104 -1.7821 -0.1913 0.6459 1.4978 0.9015 -1.0431 0.6584 0.2664 0.1202 -0.7793 0.6727 -0.0261 3.1701 2.5969 -0.3009 1.4694 -3.4270 -0.6084 1.4540 -1.9647 -0.7788 0.1546 -4.8679 -0.6860 -0.6136 2.7282 -0.5268 -0.3870 2.3861 1.1969 -1.9915 2.3834 0.4692 5.2475 2.6306 -0.7850 4.8792 2.0580 0.8750 4.7593 3.7849 0.4766 2.0180 1.5812 -3.5258 2.1955 0.1270 -4.2366 -4.5818 0.2658 2.4813 -4.9498 -1.4474 2.6683 -2.5579 -2.0245 2.6415 -2.8728 -0.8280 3.8949 -5.2229 -0.6938 0.3038 -4.0099 -1.9595 0.4629 -0.8270 -0.2928 2.6062 -2.0393 0.9772 2.4759 -3.5389 1.0305 0.1419 -3.1670 -0.2233 -1.0345 3.1027 -1.4525 -1.9931 1.7072 -2.0451 -2.8915 3.4468 0.5365 -0.2402 0.5207 -1.7437 1.0839 0.4893 -0.0422 -2.6854 -1.5484 -1.2380 0.4183 1.0406 1.8439 -1.3575 1.0308 0.6671 1.0741
3.2074 -3.9751 -0.2259 0.6603 -0.2999 1.8549 1.2129 3.4015 -0.7085 1.1086 -0.6148 -3.6451 2.5877 2.6876 1.1108 1.4545 -4.6820 -1.5147 -4.0700 0.6189 2.3032 -3.8253 -0.4353 1.2286 -3.2286 1.8681 2.0621 -2.3419 -0.7876 1.1031 -1.7437 1.5273 1.9407 2.7304 -1.5396 -2.0462 2.2918 1.2043 -0.6184 0.7754 -1.8779 -0.5166 2.0363 -0.2652 -2.5625 -1.4847 0.4676 0.8481 1.2927 0.4872 -1.4292 0.3255 -0.4336 -0.6080 -0.0468 0.1935 0.6791 2.0831 2.4118 0.0225 2.1181 -3.7945 -1.0047 1.8538 -2.3556 -1.1510 3.4286 -4.9253 -0.1215 1.7247 -0.4559 1.6462 0.2505 -1.2445 2.2256 0.6297 0.4277 2.6714 0.1631 3.1128 -0.6050 1.4859 3.4534 -1.7659 1.3402 4.3948 -0.2691 1.6406 -1.0024 -4.4247 0.6835 0.2381 -4.0085 -3.8287 0.1998 3.2881 -5.1321 0.8876 2.3228 -4.1937 -0.0638 0.2643 -4.3996 -1.3391 1.4620 -3.3764 2.5747 2.8868 -3.5672 2.3694 1.1474 -2.2236 -1.5068 0.2845 -2.0222 -1.2927 2.0222 -1.4038 1.1655 2.9185 -1.1802 2.4421 1.7208 3.6312 -1.2618 -1.4839 3.0765 -2.1455 -2.8936 3.0653 0.6488 -0.2654 0.1521 -2.5510 0.0692 2.8034 0.3911 -2.9941 -1.8398 0.9186 -0.0900 0.6752 1.2601 -1.9018 -0.5805 -0.5023 -1.2291
3.6133 -3.4390 0.0056 0.6030 0.0478 1.7323 2.5303 3.6227 -0.1736 0.9034 -0.8651 -3.7157 0.3178 3.1817 -0.9416 1.8863 -4.5992 -0.9454 -4.1630 0.3382 2.3617 -3.8151 -0.8129 1.4242 -3.5541 1.6515 1.8807 -2.3042 -0.9530 1.2458 -2.0417 1.5311 1.6997 2.6710 -1.4246 -2.0788 1.8545 1.4252 -0.9289 0.8444 -1.8015 -0.4075 1.8065 -0.3095 -2.6998 -1.6696 0.3640 0.7620 0.9899 0.4697 -1.6391 0.1872 -0.4624 -0.6691 -0.2169 0.2778 0.5473 1.4442 2.7395 -0.7228 2.4484 -3.5519 -0.6706 1.9580 -2.2113 -1.0267 3.9530 -4.3112 0.2996 1.6708 0.0460 1.4849 0.3744 -0.9030 2.2240 0.4780 0.8476 2.4675 2.0879 4.3242 0.5407 2.9766 4.1894 -0.9951 3.3031 3.0456 0.3396 0.2928 -1.5671 -3.3018 1.4481 -1.3436 -4.4322 -3.7931 0.1112 3.3694 -5.2512 0.4398 2.4354 -4.2847 -0.6451 0.4470 -4.2258 -1.7488 1.8195 -3.7743 2.4453 2.6036 -4.0155 1.9463 0.9306 -2.1104 -1.7591 0.5292 -1.8666 -1.2620 2.2024 -1.5972 1.3900 2.6919 -1.6485 2.4748 1.3021 3.5643 -0.9772 -1.6247 3.0339 -2.0974 -2.8670 2.8545 1.2517 -0.9737 0.3524 -2.4586 0.3073 2.4760 0.3847 -3.2236 -2.1279 0.6101 -0.2072 0.2558 1.0835 -2.1804 -0.7199 -0.7359 -1.2285
2.2123 -4.5674 -0.4044 0.2720 -1.0015 2.0639 2.1510 3.6660 -0.7158 1.9474 0.5247 -3.6554 -0.1125 2.9185 -0.6781 4.1507 -3.6206 -1.1194 -4.0595 0.8556 2.3008 -3.9542 -0.2443 1.2518 -3.0669 1.9780 2.0162 -2.5391 -0.8099 1.2078 -1.6331 1.4507 1.9601 2.5709 -1.4088 -2.2533 1.5658 1.3157 -0.8889 1.0853 -2.0684 -0.3678 1.4479 -0.4441 -2.6764 -1.4913 0.2943 0.9457 0.7471 0.2440 -1.4747 0.2286 -0.8188 -0.4343 -0.0961 -0.2032 0.8877 1.0759 2.6120 -0.7545 2.9513 -3.5460 -0.8994 2.1477 -2.3222 -1.1423 2.7652 -5.2162 0.0833 1.3509 -1.1894 2.0962 -0.2420 -1.9702 2.0907 0.0372 -0.4899 3.0014 1.6975 4.6337 -0.4713 2.6312 3.7493 -1.6939 2.8932 3.4330 0.0511 2.3766 0.0293 -4.4370 2.6861 1.0903 -3.2392 -3.8577 0.4322 3.2930 -5.0791 1.2536 2.3216 -4.2260 0.1508 0.2655 -4.6618 -1.0477 1.4849 -3.1472 2.7452 2.7943 -3.3174 2.4592 1.0630 -2.4870 -1.5818 0.4318 -2.3493 -1.3073 2.1662 -1.3509 1.1301 2.9692 -0.9592 2.2737 1.6968 3.4672 -0.8586 -1.9422 2.8529 -2.0158 -3.1247 2.4444 1.0713 -0.4419 0.7718 -2.8185 0.3534 0.6825 -1.0401 -3.1925 -1.7299 0.7315 -0.0337 -0.1428 0.7435 -1.8838 -0.7074 -1.1957 -0.8716
2.2518 -4.0082 -0.7541 0.8701 -0.9622 1.9683 3.4078 3.2439 0.4758 0.3487 0.4084 -3.3816 1.0382 3.1304 0.7191 1.5418 -4.0774 -2.9275 -4.2215 0.3744 1.1884 -3.3594 1.5750 1.5599 -3.6553 -0.9089 1.7834 -1.9144 1.3892 1.1085 -2.2257 -1.1464 1.3106 2.1595 -1.0171 -2.5254 2.1407 1.3189 -0.2546 0.5622 -1.7413 -0.7416 1.5060 0.3818 -2.4717 -1.3111 0.0611 1.6071 1.0319 0.7889 -1.0534 0.1916 -0.3313 -0.3523 0.0682 -0.0946 1.1045 2.0673 2.5774 0.3371 1.7414 -3.4716 -1.8889 1.4676 -2.0386 -1.6796 2.2782 -4.9882 -0.7819 1.8867 -1.0995 1.5858 0.4211 -1.9543 2.0954 0.9707 -0.5209 2.9660 3.7949 3.5134 -0.5098 4.1073 2.5789 0.9868 3.3014 4.1577 1.0708 0.6705 0.3097 -4.3436 -0.0912 1.3279 -3.3355 -4.2740 0.2812 0.0957 -5.2443 0.5286 1.5476 -3.3863 1.7258 2.6458 -3.7698 2.4803 1.0988 -4.2810 -1.7599 1.4915 -3.6765 -0.8524 2.8785 -1.3169 2.2299 1.4800 -1.8917 1.4474 0.0143 -2.2613 -1.3625 0.2375 -1.8376 -2.0477 1.7987 3.2034 -0.9444 -2.1982 2.1912 -1.3657 -3.5680 2.9286 0.7154 -0.0377 0.0422 -2.5446 -0.2224 2.2317 1.1150 -2.8465 -1.2590 0.1534 2.7025 0.3549 1.6469 -1.1756 -0.8008 -0.2230 -0.8084
1.1936 -4.0694 -2.2670 0.8068 -0.8038 2.1193 3.5378 3.2579 0.5873 0.3960 0.4471 -3.3072 2.0151 3.5295 -1.2244 3.1497 -3.7441 -1.1301 -4.3183 0.2295 1.0593 -3.5297 1.4727 1.4544 -3.7180 -1.0216 1.6890 -2.0580 1.3524 1.0674 -2.2535 -1.1943 1.2901 2.2747 -0.8898 -2.3763 2.1459 1.4336 -0.2014 0.7311 -1.6748 -0.5685 1.5263 0.4615 -2.3733 -1.4119 0.0629 1.6100 1.0266 0.8671 -0.9627 0.2286 -0.2856 -0.2530 0.0053 -0.0089 1.1859 2.4845 2.7772 -0.3712 2.1045 -3.3254 -1.6010 1.6567 -1.9287 -1.4991 1.2913 -5.0253 -2.0643 1.8540 -0.8719 1.8066 0.4228 -1.8244 2.2343 0.8071 -0.3428 3.1130 4.5235 2.9667 0.2154 3.3762 2.8505 1.5875 3.4957 4.3509 0.6465 -0.2820 -0.2609 -3.0347 0.7222 0.1997 -4.2398 -4.3213 0.1263 -0.0332 -5.3620 0.3380 1.3739 -3.6131 1.6315 2.5364 -3.9627 2.3535 0.9672 -4.2895 -1.9027 1.3750 -3.7985 -0.9610 2.7810 -1.5144 2.2258 1.4495 -1.9897 1.3941 -0.0256 -2.2250 -1.4322 0.2215 -1.8479 -2.0669 1.8156 3.3046 -0.7275 -2.0332 2.3512 -1.2682 -3.4041 2.4033 0.9815 0.6697 0.2913 -2.4999 -0.0117 2.2236 1.2197 -2.7522 -1.4245 0.1671 2.7054 0.3152 1.6998 -1.0684 -0.7451 -0.2665 -0.7588
1.7067 -4.7211 -0.9279 0.1511 -1.3188 1.9927 0.8688 3.3205 -1.0617 2.3953 0.7814 -3.3419 2.2889 3.0021 0.8308 3.8047 -3.9927 -1.4159 -3.9114 1.0559 2.2884 -3.8496 0.2373 1.0070 -2.7470 2.0382 2.3620 -2.5371 -0.5336 0.9308 -1.4012 1.3171 2.2718 2.6405 -1.4155 -2.2451 1.9560 1.1768 -0.5241 0.9606 -2.1188 -0.5451 1.6945 -0.2418 -2.5594 -1.3139 0.4055 1.0249 1.0169 0.3492 -1.2935 0.2984 -0.7605 -0.4455 -0.0127 -0.3028 0.9444 1.7569 2.4974 -0.1590 2.6180 -3.7660 -1.2315 2.0208 -2.4104 -1.3093 2.1272 -5.5169 -0.5361 1.1816 -1.6902 2.0299 -0.5154 -2.1787 1.8528 -0.0426 -0.9218 2.9925 0.9900 4.3823 -0.8275 -0.1785 3.0558 -0.8912 1.1282 3.1715 -2.1129 2.8081 0.3572 -4.1722 3.1726 1.1617 -2.8024 -3.8760 0.3794 3.1519 -4.8620 1.5955 2.3407 -3.9446 0.8954 0.1346 -4.6886 -0.4663 0.9748 -2.8027 2.5977 3.3024 -2.8252 2.7682 1.5477 -2.5226 -1.1011 -0.0055 -2.5262 -1.2665 1.7453 -1.2780 0.7415 3.1958 -0.5933 2.0591 2.2529 3.5846 -1.0579 -1.8158 2.8908 -1.9196 -3.1882 2.7736 0.7163 -0.1355 0.4947 -2.9121 0.0331 0.8918 -0.6286 -3.2013 -1.3657 1.0872 0.1651 0.2245 1.0153 -1.6513 -0.6512 -0.9238 -0.9724
0.8170 -3.8582 -1.5695 -0.9295 2.1759 0.5724 4.9240 2.7555 -0.2023 0.3787 0.3939 -2.8992 3.1056 3.3840 -1.6107 2.0370 -3.8765 0.3630 -4.2294 -0.9531 2.0487 -2.8562 -1.2069 2.6601 -4.1593 -0.9461 0.5247 -1.8347 -0.1753 2.1815 -3.1338 0.0665 0.0043 2.0241 -1.2126 -1.9811 2.9397 1.3898 -0.4083 0.9300 -1.1113 0.2735 1.6525 0.2679 -2.1860 -1.7406 -0.1495 0.6416 1.5805 1.0675 -0.8671 0.7128 0.3901 0.2541 -0.7266 0.7955 0.1080 3.5654 2.5659 -0.8158 1.5021 -3.2790 -0.5561 1.4826 -1.8129 -0.7244 0.8636 -4.8376 -1.5396 -0.5219 2.8902 -0.1496 -0.4495 2.3631 1.5394 -1.9847 2.4424 0.6755 5.6245 2.0422 -0.6436 4.8798 2.6216 0.8810 5.2767 3.7703 -0.4139 -0.3823 0.0453 -2.3201 0.3957 -0.1761 -3.7427 -4.6196 0.0083 2.4050 -4.9306 -1.7262 2.3835 -2.5156 -2.2137 2.3874 -2.9254 -1.1791 3.7533 -5.1481 -0.7153 0.1119 -3.8944 -1.9503 0.1708 -0.8612 -0.4149 2.6236 -2.1251 0.8090 2.5680 -3.5159 1.0717 0.2102 -3.0621 -0.0307 -1.0862 3.1174 -1.3073 -1.9494 1.7006 -1.7966 -2.8523 3.2993 0.9030 0.4080 0.5827 -1.6375 1.1612 2.4177 0.7095 -2.8377 -1.4754 -1.1621 0.3153 1.1409 2.0436 -1.0978 1.0708 0.7560 1.2273
1.7739 -3.8596 0.1096 -0.7914 2.1826 0.8794 5.0536 2.5779 -0.4774 0.1826 0.6481 -2.8042 3.1599 3.2970 -1.7321 0.5191 -3.8456 -1.7914 -4.2017 -1.0331 1.9825 -2.8391 -1.3693 2.5783 -4.1107 -0.8583 0.4693 -1.8086 -0.2971 2.2287 -3.0738 0.2030 0.0797 1.7889 -1.1205 -2.1435 2.9823 1.3299 -0.4885 0.9098 -1.1329 0.2044 1.4963 0.3885 -2.2112 -1.6940 -0.1086 0.7013 1.5778 1.0908 -0.8405 0.7735 0.3770 0.3028 -0.6491 0.8532 0.2737 3.6389 2.4622 -0.9661 1.1506 -3.2571 -0.9265 1.3197 -1.7890 -0.8903 1.4236 -4.7660 0.2532 -0.7696 2.1555 1.9727 -1.7225 2.6584 0.5567 0.0091 2.8662 0.5787 5.6817 1.8677 -1.0209 5.1089 2.3876 0.5965 5.4184 3.5918 -0.6721 -0.5477 0.2165 -2.2422 0.1337 0.2331 -3.7322 -4.5839 -0.1099 2.4355 -4.9160 -1.8282 2.2236 -2.5005 -2.3416 2.1992 -2.9220 -1.4609 3.6669 -5.0933 -0.5838 0.0696 -3.8402 -1.8193 0.0127 -0.8403 -0.5802 2.6560 -2.1146 0.6361 2.7156 -3.4383 1.1851 0.4004 -2.9920 0.2278 -1.0144 2.8735 -1.2773 -2.2150 1.3584 -1.6173 -3.0229 3.3862 0.8139 0.2885 0.5773 -1.7020 1.0711 2.2345 0.8308 -2.8925 -1.4575 -1.0895 0.2749 1.1659 2.0988 -0.9672 1.2085 0.6680 1.2699
0.6099 -3.8892 -1.2408 -0.9260 2.1859 0.3017 4.7199 2.6735 0.1998 0.2615 0.2195 -3.0172 2.4269 3.2106 0.6186 2.5947 -3.8194 -0.1003 -4.1158 -0.8436 2.1867 -2.7107 -1.0157 2.7550 -4.1237 -0.9333 0.6631 -1.7285 -0.0196 2.1396 -3.1441 0.0575 0.0304 2.0614 -1.2306 -2.1497 2.9276 1.2720 -0.5803 0.9502 -1.1246 0.1037 1.5843 0.2136 -2.3831 -1.7191 -0.1218 0.6005 1.5583 1.0343 -1.0699 0.6955 0.3752 0.0632 -0.7418 0.7726 -0.0650 3.2370 2.4394 0.1116 1.6714 -3.2697 -0.6761 1.5463 -1.8183 -0.8759 0.6119 -4.8557 -1.0729 -0.6167 2.8369 -0.5217 -0.3497 2.4630 1.1915 -1.9679 2.4490 0.5022 4.9129 3.5797 0.7813 5.1355 2.8031 -0.8030 5.2010 1.8270 0.6968 -0.3895 -0.3439 -2.4719 0.3219 -0.2225 -3.9338 -4.5175 0.1288 2.4973 -4.7777 -1.6105 2.6044 -2.3611 -2.0380 2.5649 -2.7341 -0.8842 3.8426 -5.1354 -0.7393 0.2890 -3.8607 -1.9530 0.3563 -0.7292 -0.2134 2.5456 -2.0111 0.9907 2.4590 -3.5223 1.0697 0.2095 -3.1342 -0.0919 -1.0562 3.1586 -1.2421 -2.1083 1.7856 -1.8640 -3.0027 3.6729 0.8779 -1.1473 0.6285 -1.6483 1.0022 2.2768 0.6881 -3.0902 -1.4703 -1.1579 0.3429 1.1786 2.0307 -1.3234 1.0581 0.7518 1.0304
1.5250 -3.9966 -0.8891 -0.4728 2.1728 1.0412 4.9511 2.2062 -0.0832 1.7906 1.2796 -3.4088 2.8917 2.5298 1.0785 -0.2242 -3.6119 -2.3020 -4.2618 -1.0971 1.9537 -3.4598 -0.2446 2.9263 -3.3476 -1.8258 0.9795 -2.5224 0.7121 2.1914 -2.4249 -0.8535 0.2445 1.4093 -0.9821 -2.5505 2.9399 0.9930 -0.6721 0.6923 -1.2614 -0.1594 1.1184 0.5087 -2.3612 -1.5569 -0.0254 1.2231 1.4964 1.0103 -0.9491 0.7288 0.2273 0.1788 -0.6261 0.8395 0.4298 3.4948 1.9431 0.1815 0.6748 -3.2084 -1.5806 0.9739 -1.7814 -1.3648 1.1992 -4.9228 -0.8575 0.1879 2.8373 0.4829 -0.0745 2.1117 2.0605 -1.4263 2.7099 1.0553 5.0680 2.7190 -1.0413 5.5144 1.2699 -0.0860 5.3507 2.8478 0.7095 1.4638 2.2451 -3.3764 1.5034 0.9269 -4.3216 -4.9553 -0.4579 1.3934 -4.8679 -1.8212 2.5084 -2.8743 -0.8907 3.5916 -4.1462 0.3307 3.5582 -3.9539 -2.3776 0.2528 -2.7452 -2.5653 1.5225 -1.9603 1.2694 2.9491 -3.1339 1.4315 1.6317 -3.0285 -0.1803 -0.3779 -1.8144 -1.4381 -0.4471 2.4802 -1.1576 -2.7156 0.8914 -1.3294 -3.4542 3.5522 0.5055 -1.3205 0.3778 -1.9325 0.6380 0.0376 0.6641 -2.4878 -0.9703 -0.7070 1.8532 1.2346 2.0717 -0.9441 1.2991 0.3058 1.1157
0.7720 -3.8576 -0.7539 -1.3310 2.0840 -0.1989 4.6421 2.1360 0.4969 1.9909 0.8659 -3.5974 3.3059 0.2424 0.9977 2.9563 -3.4941 -0.1755 -4.1173 -0.7684 2.3908 -2.7188 -0.5968 2.9739 -4.0637 -1.2816 0.9547 -1.8645 0.3256 2.1072 -3.2240 -0.3666 0.0602 1.9794 -1.1341 -2.1718 2.7274 1.5574 -0.8506 0.9129 -0.9889 0.0992 1.3307 0.2288 -2.4555 -1.8102 -0.1660 0.6466 1.3497 1.1323 -1.1963 0.5222 0.4792 -0.0338 -0.9551 0.6615 -0.2425 3.4813 1.2055 0.2579 1.8664 -3.0919 -0.5461 1.5511 -1.6883 -0.8502 0.8768 -4.7604 -0.3830 -1.1256 2.5637 -1.1608 -0.7923 2.6300 0.5842 -2.3999 2.2413 -0.0259 4.4324 2.7464 1.3784 4.8385 2.7872 -0.3571 5.5365 1.5360 0.6866 1.4784 1.7096 -3.8539 1.9277 0.2513 -4.4091 -4.6426 0.1942 2.4155 -4.6918 -1.4639 3.0118 -2.2306 -1.5757 3.0572 -2.7877 -0.1867 3.9878 -5.0794 -1.3603 0.5523 -3.6371 -2.2925 0.9436 -0.8547 0.3727 2.5313 -2.2832 1.3374 2.1640 -3.7509 0.5864 -0.0539 -3.1523 -0.8135 -0.9396 3.0741 -1.0436 -2.1683 1.7212 -1.8344 -2.9756 3.0011 2.4174 -1.3152 0.6841 -1.4685 1.0494 0.2835 0.0602 -2.7400 -1.4092 -1.1843 0.6736 0.8873 2.0864 -1.4714 0.7920 0.9793 0.9054
1.2042 -3.9420 -0.8770 -0.2772 2.0256 1.5007 5.2695 2.1615 -0.6549 -0.0359 1.2902 -2.4481 3.2636 3.4407 -0.7289 -0.0232 -3.3482 -2.6981 -4.2796 -1.1487 1.6606 -3.4989 -0.5006 2.7943 -3.3323 -1.7663 0.6422 -2.4932 0.5227 2.2649 -2.3243 -0.7397 0.1190 1.3922 -0.7363 -2.4889 3.0893 1.1221 -0.4976 0.8064 -1.2467 -0.1033 1.2982 0.7595 -2.1557 -1.4851 -0.1114 1.2636 1.6350 1.0840 -0.6914 0.8861 0.1972 0.3692 -0.4583 0.8117 0.6871 3.7779 2.3280 -0.6242 0.6643 -3.0469 -1.7333 1.0016 -1.6508 -1.3685 0.8637 -4.8469 -1.0514 0.0014 1.7871 2.5325 -1.1893 2.6314 1.4968 0.4977 2.6965 1.1219 5.5769 1.8381 -1.6525 5.5968 1.4386 0.0950 5.7399 3.1264 -0.4379 -0.7479 0.7341 -1.9801 -0.2189 1.2452 -3.4475 -4.9084 -0.3965 1.1685 -4.9516 -1.9158 2.0610 -2.9663 -1.2728 3.3630 -4.1929 -0.0131 3.4880 -3.9095 -2.1795 -0.1926 -2.7949 -2.6041 1.1041 -1.9725 0.9469 3.1297 -3.0457 1.3366 1.7768 -2.8622 0.0484 -0.4246 -1.6981 -1.2428 -0.6199 2.4272 -0.9744 -2.7661 0.7889 -0.9465 -3.3822 3.5396 0.3468 -0.0188 0.5178 -1.9809 0.6467 1.9989 1.2889 -2.8142 -0.9789 -0.9090 1.8214 1.3294 2.1220 -0.5454 1.4786 0.1897 1.2961
-0.2016 -3.5693 -1.3971 -0.2756 2.0056 1.7220 5.2131 1.6835 -0.5848 1.3566 1.5959 -3.1660 3.4407 3.2876 -0.7153 2.0714 -3.7201 -1.6176 -4.3006 -1.1744 1.5541 -3.5966 -0.5331 2.7420 -3.2967 -1.7369 0.5576 -2.5556 0.4985 2.3045 -2.3023 -0.6649 0.1130 1.1563 -0.7321 -2.4115 2.9202 1.0123 -0.7247 0.8665 -1.1827 0.0498 0.8549 0.7407 -2.0882 -1.5126 -0.0910 1.3145 1.4535 1.1484 -0.7235 0.8377 0.2895 0.4334 -0.4902 0.8675 0.8135 3.7723 2.1065 -0.6785 1.0562 -3.0739 -1.4243 1.0201 -1.6190 -1.2107 -0.2260 -4.5267 -1.6089 0.5582 2.6428 1.4096 -0.0483 1.6735 2.7411 -1.1534 2.6597 1.7385 5.8616 2.5594 -0.6756 5.4507 0.9840 -1.3914 5.3941 1.2067 0.3827 1.2007 2.5738 -2.9231 0.8129 1.4299 -4.0120 -4.9301 -0.4275 1.0550 -4.9657 -1.9717 1.9035 -3.1068 -1.3106 3.3409 -4.3373 -0.0514 3.3908 -3.8268 -2.1370 -0.3137 -2.7535 -2.5746 1.0130 -2.0652 0.8708 3.2104 -3.0742 1.3469 1.8391 -2.8426 0.1433 -0.3984 -1.6445 -1.1077 -0.6370 2.1786 -0.8385 -2.7989 0.4800 -1.0711 -3.2065 3.2813 0.1444 -0.3384 0.7795 -1.9015 0.8617 -0.2343 0.8733 -2.0439 -1.0155 -0.9095 1.8500 1.2349 2.2089 -0.5558 1.5039 0.3717 1.3052
1.1543 -3.6350 0.3468 -1.2233 2.1902 -0.0749 4.7592 2.1019 0.4424 0.1396 0.2681 -3.1450 3.4104 0.1957 0.9023 2.5357 -3.7883 -1.4467 -4.0221 -0.8650 2.3529 -2.5884 -0.8183 2.8710 -4.0694 -1.1552 0.8547 -1.7418 0.1866 2.0898 -3.2254 -0.1586 0.0535 1.9792 -1.0833 -2.2398 2.8007 1.6118 -0.8597 0.9313 -0.9462 0.0276 1.4633 0.3400 -2.5157 -1.7704 -0.1143 0.5766 1.4243 1.1932 -1.2259 0.5845 0.5331 -0.0763 -0.8933 0.7676 -0.2402 3.5812 1.1899 0.2045 1.8101 -3.1233 -0.7210 1.5299 -1.6747 -0.9296 1.4604 -4.5396 0.5741 -0.9920 2.7431 -0.9903 -0.6714 2.6479 0.7532 -2.2867 2.3703 0.1057 4.4388 2.9662 1.0300 5.1948 2.4356 -0.5035 5.5296 1.5618 1.0010 0.2182 -0.2167 -4.0394 -0.1796 1.2108 -3.3688 -4.5137 0.0944 2.5564 -4.5846 -1.6328 2.8964 -2.1366 -1.8155 2.7930 -2.5882 -0.5515 3.9340 -5.1083 -1.1231 0.5075 -3.7036 -2.1728 0.6685 -0.7151 0.1494 2.4703 -2.1214 1.1956 2.2916 -3.7068 0.8230 0.1173 -3.2346 -0.4520 -1.0036 3.0771 -1.0534 -2.2298 1.7059 -1.7491 -3.0687 3.0973 2.4739 -1.3092 0.6817 -1.4052 0.9818 2.1350 0.8122 -3.2446 -1.4335 -1.1492 0.4476 0.9798 2.1606 -1.4880 0.8880 1.0002 0.8703
-0.0431 -3.7446 -0.8789 -0.4953 2.2284 0.8414 5.0294 2.1685 0.1778 -0.0334 0.8680 -2.8333 2.8511 2.6377 1.0231 1.8781 -3.9172 -2.0914 -4.1594 -1.1490 1.8791 -3.4083 -0.2172 2.8197 -3.2030 -1.8759 0.9445 -2.4949 0.7422 2.0563 -2.3122 -0.8967 0.1799 1.5168 -1.0016 -2.5513 3.0547 1.0447 -0.6730 0.8568 -1.2078 -0.1386 1.3331 0.5162 -2.4242 -1.4873 -0.0000 1.1328 1.6149 1.0424 -0.9970 0.8114 0.2927 0.1275 -0.5737 0.8571 0.3115 3.5379 1.9896 0.2351 1.0687 -3.2470 -1.4693 1.1409 -1.7731 -1.3234 0.0170 -4.7142 -0.7404 0.1315 2.8871 0.2401 -0.0991 2.2485 1.8633 -1.4749 2.7159 0.8220 5.2867 2.8053 -0.6723 5.5373 1.2050 0.0945 5.3650 2.6594 1.0975 -0.1662 0.6175 -3.8133 -0.1452 1.8809 -2.7941 -4.8783 -0.5697 1.2864 -4.7370 -1.8763 2.4604 -2.8100 -0.8073 3.5241 -4.1279 0.3568 3.4151 -3.7758 -2.4837 0.2352 -2.5768 -2.5668 1.5229 -1.9651 1.3544 2.7949 -3.1266 1.4137 1.4602 -2.9362 -0.2708 -0.4714 -1.6707 -1.4794 -0.4840 2.5732 -1.2045 -2.7689 0.9572 -1.3828 -3.4167 3.6815 0.7922 -1.4323 0.6205 -1.8475 0.7093 2.0167 1.0045 -3.1308 -0.8864 -0.6340 1.7976 1.3658 2.1064 -1.0283 1.3401 0.4323 1.0813
0.3816 -3.5834 -0.6044 -0.7867 2.3918 0.7604 5.1133 1.4965 0.0988 -0.2480 1.0110 -2.8016 3.5634 -0.2530 0.5177 2.0712 -3.5455 -2.1286 -4.0313 -1.3497 1.9418 -3.3908 -0.2948 2.8309 -2.9821 -2.0195 1.0672 -2.6255 0.7343 2.0019 -2.2218 -0.9872 0.2322 1.4814 -0.7124 -2.5362 2.9164 1.5301 -0.8614 0.8951 -0.9153 -0.1048 1.1562 0.7837 -2.4416 -1.5264 0.0754 1.1245 1.4568 1.3512 -1.0364 0.7282 0.5838 0.1211 -0.7146 1.0036 0.2711 3.7784 0.8158 -0.0442 1.2942 -2.9633 -1.3876 1.2008 -1.4871 -1.2821 0.5545 -4.5467 -0.5335 -0.1885 3.0956 0.1791 -0.4464 2.4730 1.7989 -1.8071 2.7809 0.6798 5.0399 2.2804 0.8570 5.4364 1.9254 -0.8534 5.8585 0.7615 0.4173 -0.4097 0.6876 -3.7550 -0.4280 2.0150 -2.8207 -4.7917 -0.8808 1.3050 -4.5420 -2.0976 2.5575 -2.7039 -0.7745 3.5393 -4.1622 0.2102 3.4224 -3.4621 -2.7511 0.4079 -2.2755 -2.5743 1.6982 -2.1883 1.4548 2.7012 -3.3388 1.2754 1.3664 -2.9160 -0.4975 -0.4625 -1.5122 -1.5327 -0.3915 2.5524 -0.8152 -2.7571 0.9551 -1.1650 -3.3870 3.2417 2.4518 -1.1397 0.7571 -1.5425 0.7736 1.7673 1.3130 -3.1846 -0.8566 -0.4336 1.8297 1.1254 2.3928 -1.0542 1.2309 0.8283 1.0672

$$$$
