111
 OpenBabel12081818573D

 25 26  0  0  0  0  0  0  0  0999 V2000
   27.9490  -12.7780   62.9190 C   0  0  0  0  0  0  0  0  0  0  0  0
   27.7650   -8.5320   64.3440 C   0  0  0  0  0  0  0  0  0  0  0  0
   31.7020   -9.4880   60.9290 O   0  0  0  0  0  0  0  0  0  0  0  0
   35.1150   -7.1970   63.4350 O   0  0  0  0  0  0  0  0  0  0  0  0
   32.0780  -13.6760   66.5930 O   0  0  0  0  0  0  0  0  0  0  0  0
   34.1150  -13.0700   67.2850 O   0  0  0  0  0  0  0  0  0  0  0  0
   31.2300   -6.8410   65.0770 O   0  0  0  0  0  0  0  0  0  0  0  0
   29.2160  -11.9210   62.8880 C   0  0  0  0  0  0  0  0  0  0  0  0
   28.0610   -9.6490   63.3340 C   0  0  0  0  0  0  0  0  0  0  0  0
   33.0290   -9.0750   61.2490 C   0  0  0  0  0  0  0  0  0  0  0  0
   34.5150   -7.2100   62.1450 C   0  0  0  0  0  0  0  0  0  0  0  0
   31.7780   -5.8770   62.9210 C   0  0  0  0  0  0  0  0  0  0  0  0
   32.0960   -6.7030   61.6670 C   0  0  0  0  0  0  0  0  0  0  0  0
   30.4840   -9.9330   63.6410 N   0  0  0  0  0  0  0  0  0  0  0  0
   34.0310  -10.5980   65.8420 C   0  0  0  0  0  0  0  0  0  0  0  0
   33.8750   -9.4120   65.0710 C   0  0  0  0  0  0  0  0  0  0  0  0
   31.8140  -11.3380   65.1410 C   0  0  0  0  0  0  0  0  0  0  0  0
   29.1840  -10.6300   63.7590 C   0  0  0  0  0  0  0  0  0  0  0  0
   32.5210   -8.0310   63.5490 N   0  0  0  0  0  0  0  0  0  0  0  0
   33.1340  -12.8250   66.6530 C   0  0  0  0  0  0  0  0  0  0  0  0
   31.7970   -6.9540   63.9980 C   0  0  0  0  0  0  0  0  0  0  0  0
   31.6360  -10.1660   64.3690 C   0  0  0  0  0  0  0  0  0  0  0  0
   32.9940  -11.5710   65.8730 C   0  0  0  0  0  0  0  0  0  0  0  0
   32.6830   -9.1850   64.3260 C   0  0  0  0  0  0  0  0  0  0  0  0
   33.0660   -7.7960   62.1590 C   0  0  0  0  0  0  0  0  0  0  0  0
  1  8  1  0  0  0  0
  2  9  1  0  0  0  0
  3 10  1  0  0  0  0
  4 11  1  0  0  0  0
  5 20  1  0  0  0  0
  6 20  2  0  0  0  0
  7 21  2  0  0  0  0
  8 18  1  0  0  0  0
  9 18  1  0  0  0  0
 10 25  1  0  0  0  0
 11 25  1  0  0  0  0
 12 13  1  0  0  0  0
 12 21  1  0  0  0  0
 13 25  1  0  0  0  0
 14 18  1  0  0  0  0
 14 22  1  0  0  0  0
 15 16  2  0  0  0  0
 15 23  1  0  0  0  0
 16 24  1  0  0  0  0
 17 22  1  0  0  0  0
 17 23  2  0  0  0  0
 19 21  1  0  0  0  0
 19 24  1  0  0  0  0
 19 25  1  0  0  0  0
 20 23  1  0  0  0  0
 22 24  2  0  0  0  0
M  END
>  <MOLID>
111
>  <SMILES_CANONICAL> (111)
CCC(Nc1cc(ccc1N1C(=O)CCC1(CO)CO)C(=O)O)CC	111

>  <FINGERPRINT>
0000000000000011010000000000001000000001000000000101100000000000010000000001000000010001000000011000000000001001000001100000000000100000000010000000000010000000000000000000000001100000000100000000000000000000000000000000000000000000000100000000001000000000000000000000000000000001000000000000000000000000000010001101000000000000001010000010000000000100010000000000000110010000000000000000010000000000100000000010001000000001000100001000000000000000000000000000111000000000010000000001000000001000000000000000100000010000000001000000000000000000000000100000000001000000000000000000100101000000000000000000000010000000000000000000001000000001010000000001000000000000000000000001100000000010000011100010000000100011000000000010000000000000000000000101000000000000000111000000000000000100000000000000000010000000000000000000000000000000000010000000000000000000001000000001000000000000000000001000000000100000010000101000000000000000000000100000011000000000000000011100000000000000000100000000000000000000100000000000001000000000

>  <MACCS166>
000000000000000000000000000000000000000000001000010010000000010001000000001100100010100011010011001000010000011101011001111000110011101111111111010111101111111110111000

>  <OB_MW>
350.184

>  <OB_logP>
1.9735

>  <OB_PSA>
110.1

>  <OB_MR>
98.7526

>  <OB_CHARGES>
0.0018171093 0.0018171093 -0.2185273705 -0.2185273705 -0.2405515836 -0.2405515836 -0.2745339151 0.0215666344 0.0215666344 0.2029989994 0.2029989994 0.0874461622 0.0333662741 -0.238102849 0.0079410854 0.0164153563 0.0239221765 0.0925078974 -0.2555792882 0.3877952766 0.2294607612 0.0790610796 0.0811329305 0.0686986801 0.1258607946

>  <OB_ATOM_TYPES>
C.3 C.3 O.3 O.3 O.co2 O.co2 O.2 C.3 C.3 C.3 C.3 C.3 C.3 N.pl3 C.ar C.ar C.ar C.3 N.am C.2 C.2 C.ar C.ar C.ar C.3

>  <OB_ATOMIC_CHARGES>
0.0018 0.0018 -0.2185 -0.2185 -0.2406 -0.2406 -0.2745 0.0216 0.0216 0.2030 0.2030 0.0874 0.0334 -0.2381 0.0079 0.0164 0.0239 0.0925 -0.2556 0.3878 0.2295 0.0791 0.0811 0.0687 0.1259

>  <MCT_HBD>
4

>  <MCT_HBA>
7

>  <ENSEMBLE_TOTAL>
46

>  <ENSEMBLE_RMSD>
1.072 1.147 1.172 1.211 1.234 1.292 1.309 1.343 1.358 1.369 1.396 1.397 1.418 1.418 1.427 1.465 1.500 1.551 1.556 1.556 1.574 1.644 1.768 1.959 2.016 2.052 2.112 2.154 2.527 2.528 2.575 2.580 2.586 2.633 2.633 2.684 2.742 2.785 2.846 2.847 2.855 2.888 2.920 2.921 2.949 3.015

>  <ENSEMBLE_COORDS>
-3.0993 -3.2685 0.0974 -3.6379 0.9216 -0.8014 0.5222 0.0987 -2.5134 3.2993 3.2996 -0.0236 1.0636 -4.5050 2.1018 2.4467 -3.6724 3.7191 -0.1479 2.5682 1.6918 -2.4854 -1.9947 -0.4729 -3.5060 0.1571 0.5135 1.8129 0.6279 -2.2439 3.1882 2.3663 -1.0887 0.3262 3.5964 -0.4460 0.7986 2.9031 -1.7220 -1.0943 -0.1733 0.4662 2.7002 -1.4452 1.7981 2.5476 -0.2122 1.1651 0.3169 -1.8356 1.5899 -2.3637 -0.8813 0.5864 1.1556 1.4556 0.0596 1.7598 -3.5280 2.7233 0.3931 2.5056 0.5967 0.1443 -0.6162 0.9131 1.5848 -2.2522 2.0105 1.2879 0.2003 0.7093 1.7515 1.7927 -1.2346 -2.4834 -3.6809 0.9025 -3.1758 -4.0309 -0.6851 -4.1052 -3.0835 0.4869 -4.3247 1.7644 -0.6708 -4.0480 0.2883 -1.5926 -2.6870 1.3344 -1.1484 0.6511 -0.7451 -2.9788 4.2244 3.5973 0.0044 0.9587 -5.2977 2.6714 -3.0964 -1.6755 -1.3225 -1.5043 -2.2476 -0.8922 -4.4580 -0.3440 0.7263 -3.3647 0.8873 1.3221 2.2428 0.9680 -3.1936 2.4466 -0.1860 -1.8744 3.9147 1.5671 -0.9091 3.4931 2.8727 -2.0124 -0.6997 3.9592 -0.5550 0.9801 4.4220 -0.1547 1.2613 3.6031 -2.4255 -0.0807 2.4793 -2.2238 -1.0552 0.5744 -0.2171 3.6866 -1.7543 2.1332 3.4237 0.4147 1.0307 -0.5365 -2.4768 1.7921 -2.4280 -1.3183 1.5913
-2.4319 -3.3239 -0.5240 -3.4841 0.9966 1.7776 2.9490 0.7570 -3.4710 2.9599 3.3857 -0.1371 0.2833 -3.8363 3.3864 2.5473 -3.9506 3.1773 -0.6249 2.4417 0.9683 -3.0060 -1.9241 -0.7001 -3.4650 0.2953 0.4243 2.1824 0.3792 -2.3297 3.1638 2.3586 -1.0975 0.1437 3.3114 -1.1449 0.9112 2.5673 -2.2321 -1.1791 -0.4796 -0.0420 2.4228 -1.3190 1.9824 2.3107 -0.1692 1.1907 0.1440 -1.8900 1.4462 -2.5121 -0.9200 0.3658 1.0257 1.3049 -0.2864 1.4833 -3.4070 2.9339 0.1018 2.3236 -0.0063 0.0016 -0.7391 0.6427 1.3372 -2.1819 2.1142 1.1178 0.1274 0.5115 1.8500 1.6109 -1.4647 -1.3444 -3.3319 -0.6412 -2.8447 -3.9960 -1.2830 -2.6834 -3.7316 0.4600 -4.2797 1.7501 1.7932 -2.5446 1.5088 1.9839 -3.6741 0.2960 2.5958 2.3321 1.0942 -4.1424 3.8172 3.8195 0.0115 0.3314 -4.7432 3.7596 -4.0987 -2.0059 -0.6703 -2.7483 -1.5583 -1.7028 -3.2141 1.0211 -0.3591 -4.4932 -0.0298 0.2233 2.7791 -0.3495 -1.7725 1.2760 -0.1256 -2.6810 3.9137 1.6700 -0.6974 3.6021 2.8243 -1.9888 -0.8655 3.5649 -1.4802 0.6571 4.2165 -0.8109 1.4331 3.2568 -2.9041 0.1956 2.0004 -2.8433 -1.1200 0.1573 -0.8295 3.3658 -1.5306 2.4807 3.1773 0.4792 1.1065 -0.6917 -2.5750 1.5552 -2.5106 -1.4006 1.3516
-3.1719 -3.0600 -0.1910 -4.7867 -0.0120 0.9148 2.8179 -0.4759 -1.9913 3.4594 3.3677 -0.3544 0.4671 -3.7594 3.3209 2.6675 -4.0627 2.8174 -0.0720 2.6983 1.3634 -2.5500 -1.7589 -0.6805 -3.4248 0.4052 0.3821 1.9490 0.5596 -2.4293 3.3779 2.3027 -1.2908 0.5198 3.6178 -0.7930 1.0171 2.8480 -2.0130 -1.0625 -0.0651 0.2626 2.6435 -1.3670 1.7987 2.5556 -0.1663 1.0931 0.2763 -1.7284 1.4598 -2.3621 -0.7141 0.4394 1.2768 1.4855 -0.1562 1.6355 -3.4188 2.7329 0.5163 2.5756 0.2982 0.1575 -0.5184 0.7486 1.5040 -2.1481 1.9873 1.3314 0.2582 0.5571 1.9357 1.7458 -1.4419 -2.5890 -3.5009 0.6228 -3.2039 -3.7874 -1.0091 -4.1972 -2.9107 0.1560 -5.5165 0.7839 0.7317 -4.7468 -0.1878 1.9943 -5.1595 -0.9129 0.4233 2.8031 -1.1738 -2.6676 4.3969 3.6126 -0.2751 0.4628 -4.6964 3.6137 -3.1687 -1.3539 -1.4893 -1.5857 -2.0087 -1.1404 -3.0847 1.2577 0.9849 -3.5338 0.7776 -0.6437 0.9477 0.1374 -2.5652 2.3054 0.8926 -3.4121 4.0768 1.5256 -0.9683 3.7407 2.6775 -2.2560 -0.4883 4.0072 -0.9593 1.1872 4.4357 -0.5123 1.5111 3.4998 -2.7413 0.1493 2.3997 -2.5158 -1.0269 0.7034 -0.3986 3.6090 -1.6821 2.1861 3.4576 0.4232 0.9584 -0.6010 -2.3496 1.6175 -2.4242 -1.1789 1.4305
-2.6746 -2.4768 -1.5838 -3.6190 1.2332 0.9583 0.7208 -0.1333 -2.6661 3.5822 2.9627 -2.1180 2.2652 -3.3154 4.0755 1.2142 -4.5747 2.4853 -0.3522 2.4708 1.5210 -2.7623 -2.4035 -0.0627 -3.5155 -0.0021 0.0787 1.9415 0.4324 -2.2101 3.0574 2.3176 -0.9613 0.1651 3.4055 -0.6526 0.7180 2.6644 -1.8709 -1.1069 -0.5965 0.0500 2.5493 -1.3522 2.0480 2.3703 -0.1680 1.3351 0.2438 -1.9456 1.5920 -2.4324 -1.0103 0.5258 0.9974 1.3064 -0.0296 1.6259 -3.5061 2.9024 0.2104 2.3657 0.4409 0.0589 -0.7962 0.8035 1.4772 -2.2276 2.1906 1.1465 0.1068 0.7029 1.6987 1.6329 -1.2756 -3.3911 -1.8015 -2.0598 -2.9023 -3.4925 -1.9209 -1.6704 -2.2295 -1.9423 -4.5291 1.7898 0.7067 -2.7725 1.9021 0.7943 -3.6717 0.9728 2.0194 0.9445 -0.9558 -3.1337 4.2256 3.6246 -1.8121 2.5032 -4.1688 4.4984 -2.0938 -3.1629 0.3544 -3.7697 -2.7022 0.2532 -3.3444 0.3152 -0.9571 -4.4969 -0.4938 0.0902 2.5192 0.7349 -3.0908 2.5136 -0.3547 -1.7063 2.9644 3.0658 -0.1659 3.8040 1.5847 -0.6411 -0.8641 3.7322 -0.8259 0.7893 4.2564 -0.3686 1.1661 3.3486 -2.5976 -0.1190 2.1667 -2.3766 -1.0964 0.2645 -0.4898 3.5193 -1.5714 2.4852 3.2059 0.5210 1.2597 -0.5637 -2.6583 1.7262 -2.4502 -1.0780 1.6215
-3.1125 -1.8688 -1.5420 -4.5683 -0.0051 1.5412 1.0059 -0.1680 -3.0325 3.1628 3.2141 -0.1687 1.3405 -4.2323 2.7668 2.5730 -2.9862 4.2306 -0.3586 2.5024 1.0758 -2.8456 -2.1540 -0.0681 -3.2880 0.2566 0.7512 2.1820 0.3599 -2.4372 3.2540 2.2529 -1.2100 0.2802 3.3482 -1.0981 0.9764 2.6029 -2.2355 -1.0364 -0.5495 0.1651 2.7376 -1.1420 1.9626 2.5271 -0.0561 1.1173 0.4221 -1.7886 1.6837 -2.3245 -0.9463 0.7395 1.0926 1.2779 -0.3353 1.9224 -3.0961 3.2059 0.2662 2.3508 0.0354 0.1937 -0.7172 0.7957 1.6827 -1.9996 2.2543 1.2768 0.1582 0.5181 1.8880 1.5758 -1.5324 -3.9631 -1.1932 -1.6717 -3.3544 -2.8004 -2.0624 -2.2385 -1.4348 -2.0380 -5.2975 0.7877 1.3448 -4.3681 -0.0141 2.6177 -5.0426 -0.9525 1.2699 1.2963 -0.7671 -3.7423 4.0526 3.5855 -0.0432 1.4330 -4.9610 3.4178 -2.1147 -2.9708 0.0006 -3.7582 -2.5490 0.3916 -2.7848 1.1147 1.2136 -3.5465 0.5715 -0.2656 2.8681 0.6462 -3.2445 2.6650 -0.4493 -1.8806 4.0050 1.5111 -0.9198 3.6536 2.7576 -2.0979 -0.7412 3.6231 -1.3771 0.8336 4.2376 -0.7870 1.5120 3.2823 -2.9073 0.2046 2.1046 -2.8337 -1.0591 0.0973 -0.6164 3.7225 -1.2908 2.3964 3.3627 0.6113 0.9409 -0.3866 -2.4737 1.9284 -2.2038 -1.2639 1.7824
-3.9521 -2.9138 0.1981 -3.6574 0.4603 -0.9878 2.3479 1.2115 -3.4612 4.1835 1.7864 -0.8370 0.9078 -4.1097 3.1155 3.1663 -3.8513 3.0455 -0.3946 2.4417 1.6114 -2.5936 -2.3182 -0.1355 -3.2977 0.1011 0.4490 1.9437 0.6987 -2.1950 3.0529 2.6435 -0.9301 0.1196 3.5173 -0.4948 0.6838 2.8419 -1.7421 -0.9429 -0.5524 0.0696 2.7655 -1.2329 1.9850 2.5284 -0.0272 1.3254 0.5039 -1.9298 1.4955 -2.2369 -1.0115 0.6072 1.0865 1.4548 0.0534 2.0422 -3.4518 2.7900 0.2101 2.4319 0.5490 0.2527 -0.7391 0.7846 1.7488 -2.1817 2.0877 1.2905 0.2232 0.7194 1.7401 1.8542 -1.1991 -4.0065 -3.2131 1.2484 -4.1153 -3.8074 -0.4146 -4.7707 -2.2232 -0.0166 -4.3325 1.3225 -0.9996 -4.1727 -0.3635 -1.4896 -2.7743 0.7258 -1.5750 1.7544 0.8331 -4.1322 4.9709 2.3556 -0.7885 1.0809 -5.0515 3.3308 -2.5237 -2.1658 -1.2191 -1.8463 -3.0827 0.1060 -4.2143 -0.1957 0.9754 -2.9519 1.0073 0.9625 2.7186 0.0015 -1.8610 1.0198 0.1242 -2.3293 3.2528 3.3535 -1.7410 2.9941 3.2210 0.0000 -0.9195 3.8195 -0.6497 0.7206 4.3746 -0.1796 1.0814 3.5680 -2.4585 -0.1261 2.2972 -2.2464 -0.9836 0.3620 -0.3724 3.7509 -1.4163 2.4056 3.3316 0.7011 1.2777 -0.2797 -2.6763 1.5796 -2.1580 -1.2187 1.6831
-1.5719 -2.5580 -1.5834 -3.8264 0.1087 2.0266 0.3887 -0.1762 -2.6011 4.0935 1.0896 -1.1093 0.1413 -3.4506 3.7719 2.4144 -3.4436 3.7859 -0.1064 2.9288 1.2947 -2.5009 -1.3820 -1.3091 -3.7144 -0.1284 0.5244 1.7046 0.2623 -2.3041 3.1401 2.1193 -1.3404 0.4607 3.5779 -0.9686 0.8187 2.6422 -2.1222 -1.3013 -0.0386 0.3845 2.3588 -1.0538 2.2349 2.2852 0.0298 1.3614 0.0223 -1.5253 1.8239 -2.4449 -0.9252 0.1583 1.0414 1.4557 -0.1574 1.3533 -2.9847 3.3976 0.4083 2.6495 0.2214 -0.0807 -0.4384 0.9339 1.2305 -1.8405 2.4638 1.0889 0.3281 0.6959 1.6961 1.5534 -1.4652 -0.5370 -2.3265 -1.3195 -1.5966 -2.8174 -2.6467 -1.8802 -3.4405 -1.0139 -3.5777 -0.7941 2.5936 -4.8493 0.3965 2.2886 -3.1578 0.9142 2.3475 0.4690 -1.0101 -3.0947 4.9696 1.4568 -1.3176 0.1935 -4.3641 4.1267 -3.5199 -1.7056 -1.5567 -2.2680 -0.5538 -1.9884 -3.7235 0.8379 0.0033 -4.6070 -0.6730 0.1945 2.2207 0.4314 -3.2565 2.2236 -0.5524 -1.7876 3.4334 2.6320 -2.2642 3.2261 2.8425 -0.5221 -0.5124 4.0486 -1.1316 1.2262 4.3404 -0.8021 1.3081 3.1686 -2.9480 -0.1125 2.2168 -2.5180 -1.2167 0.7073 -0.3012 3.3020 -1.2622 2.7332 3.1689 0.6453 1.2241 -0.8562 -2.1222 2.0473 -2.4259 -1.8166 0.7916
-2.8896 -2.8842 -1.3071 -3.6893 0.6061 -0.7490 1.0435 -0.5869 -1.9394 3.4274 0.6314 -1.6816 0.9024 -3.7418 3.6710 3.1571 -3.4645 3.5988 0.9308 3.0342 2.1050 -1.8288 -1.8589 -0.9185 -3.4901 -0.3822 0.3948 0.5597 0.7347 -2.1221 2.7736 1.8896 -1.5929 0.9342 3.9046 -0.1520 0.5962 3.1257 -1.4170 -1.0954 -0.1620 0.7620 2.7561 -0.9730 2.2945 2.5272 0.1632 1.5242 0.4610 -1.6644 1.9310 -2.1383 -1.1342 0.4024 1.0651 1.5923 0.2303 2.0320 -3.1023 3.2978 0.9612 2.8246 0.9007 0.1956 -0.5048 1.1779 1.7303 -1.8994 2.4868 1.2687 0.3909 0.9493 1.2770 1.7504 -1.2132 -3.0478 -3.6153 -0.5089 -2.5768 -3.4268 -2.2050 -3.8467 -2.4072 -1.5382 -4.6106 1.1753 -0.5878 -3.7869 0.0944 -1.7106 -2.8701 1.3266 -0.8206 0.6408 -1.1387 -2.6313 3.7531 0.4032 -0.7963 1.0732 -4.6826 3.8918 -1.7199 -1.1474 -1.7417 -0.8726 -2.3885 -0.8305 -4.3101 -1.1100 0.3811 -3.6006 0.1587 1.3438 -0.5185 0.7347 -1.9417 0.7051 1.0015 -3.1755 2.8700 2.3612 -2.5772 3.3240 2.5119 -0.8793 0.1734 4.6542 0.0764 1.9193 4.3760 -0.2133 0.9112 3.6447 -2.3274 -0.4958 3.0111 -1.4668 -1.0940 0.6675 0.1751 3.7375 -1.1141 2.7403 3.3316 0.8847 1.4021 -0.3383 -2.3776 2.1116 -2.2182 -1.8862 1.1959
-1.8310 -2.5000 -1.5844 -3.6442 0.1458 2.3238 2.3545 0.3672 -3.5805 4.1281 1.2287 -1.1145 0.6406 -3.9638 3.0194 2.0014 -2.8472 4.4768 -0.4225 2.8159 1.0184 -2.7712 -1.3874 -1.1412 -3.6852 -0.0764 0.8169 1.7909 0.1625 -2.2884 3.1033 2.1762 -1.3828 0.2669 3.4226 -1.2200 0.7883 2.4752 -2.2955 -1.3097 -0.1224 0.3500 2.3768 -1.0322 2.1941 2.2786 0.0351 1.3009 0.0215 -1.4890 1.8749 -2.5146 -0.9422 0.3091 1.0052 1.4176 -0.2480 1.3527 -2.8972 3.4467 0.2176 2.5510 0.0107 -0.0947 -0.4500 0.9338 1.2479 -1.7961 2.4737 1.0675 0.3171 0.6493 1.7130 1.4994 -1.5339 -0.7945 -2.1537 -1.6231 -2.1052 -2.8457 -2.5866 -1.8887 -3.3570 -0.9061 -4.5485 0.6716 2.6485 -2.7830 0.7561 2.6128 -3.5977 -0.8048 2.8639 2.1585 -0.4230 -4.1116 4.7568 1.6455 -0.5010 0.5173 -4.6343 3.7257 -3.7985 -1.7600 -1.2361 -2.6778 -0.5363 -1.8265 -3.6826 0.8983 0.3127 -4.6388 -0.5574 0.5706 2.4143 -0.5673 -1.7627 0.7943 -0.2743 -2.4145 3.3881 2.6926 -2.3066 3.1016 2.9260 -0.5828 -0.7293 3.7933 -1.4764 0.9463 4.2600 -1.0403 1.2884 3.0151 -3.1069 -0.0593 1.9364 -2.7404 -1.3233 0.7085 -0.2300 3.3273 -1.2382 2.6793 3.1586 0.6472 1.1320 -0.8496 -2.0707 2.1621 -2.4564 -1.8384 0.9345
-1.8025 -2.7853 -0.7107 -4.9548 -0.0827 0.9639 2.4063 -0.7031 -1.9146 4.2119 1.1982 -1.2470 0.3620 -3.9844 2.9710 2.4782 -3.5429 3.6769 0.0998 2.9266 1.4433 -2.5994 -1.4889 -0.7697 -3.5972 0.4524 0.5307 1.6607 0.4148 -2.3717 3.2229 2.2107 -1.3562 0.5722 3.6521 -0.8162 0.8747 2.7556 -2.0128 -1.2148 0.1185 0.5202 2.5153 -1.2862 1.9380 2.4361 -0.1160 1.1877 0.1111 -1.5228 1.7914 -2.4826 -0.6222 0.5003 1.1704 1.4962 -0.1105 1.4824 -3.2326 3.0450 0.5665 2.6818 0.3400 0.0082 -0.3785 0.9784 1.3543 -1.9971 2.2380 1.2063 0.3220 0.6795 1.7782 1.6376 -1.4387 -0.7360 -2.6012 -0.8663 -2.1345 -3.4673 -1.5008 -1.9409 -3.2996 0.2452 -5.7095 0.7060 0.8716 -4.9330 -0.4056 2.0093 -5.2805 -0.9234 0.3462 2.3668 -1.3780 -2.6138 5.0734 1.6223 -1.4031 0.3980 -4.7577 3.5737 -3.6477 -1.7667 -0.9296 -2.2985 -0.9173 -1.6557 -3.3186 1.2489 1.2336 -3.6915 0.9276 -0.4537 0.6173 0.0963 -2.4727 2.0274 0.6733 -3.3725 3.4586 2.7952 -2.2528 3.3406 2.8789 -0.4948 -0.4048 4.1305 -0.9234 1.3475 4.4063 -0.6570 1.3280 3.3080 -2.8425 -0.0705 2.3350 -2.3832 -1.1094 0.7456 -0.2743 3.4888 -1.6193 2.2885 3.3483 0.4398 0.9976 -0.7868 -2.0620 2.0771 -2.5986 -1.2392 1.3971
-1.8692 -2.7865 -0.7199 -4.9699 0.0358 0.8684 0.4642 -0.1050 -2.5071 3.8464 2.4961 -2.4387 2.2583 -4.1176 2.7790 0.4020 -3.5300 3.9739 0.1083 2.8274 1.4886 -2.6264 -1.4661 -0.7854 -3.5733 0.5131 0.5004 1.8001 0.3091 -2.2615 3.3268 2.0096 -1.2037 0.6885 3.5918 -0.7321 1.0112 2.7206 -1.9454 -1.2155 0.0801 0.5398 2.4502 -1.4038 2.0316 2.4194 -0.2496 1.2502 0.0480 -1.6079 1.7885 -2.5070 -0.6095 0.4916 1.2076 1.4082 -0.0545 1.2404 -3.2992 3.1205 0.6136 2.5962 0.3995 -0.0119 -0.4521 0.9930 1.2645 -2.0875 2.2858 1.2084 0.2200 0.7185 1.8488 1.5616 -1.3670 -0.7872 -2.6312 -0.7402 -2.1218 -3.4052 -1.5876 -2.1315 -3.3539 0.1790 -5.6837 0.8569 0.7412 -5.0110 -0.2857 1.9134 -5.3042 -0.7905 0.2363 0.5053 -0.8152 -3.1702 4.6838 2.9490 -2.2409 2.3698 -4.8444 3.4290 -3.6796 -1.7123 -0.9676 -2.2893 -0.8981 -1.6612 -3.2849 1.2826 1.2300 -3.6045 1.0106 -0.4778 2.2735 0.5083 -3.2299 2.3352 -0.5304 -1.8042 3.4364 2.8016 -0.4543 3.9635 1.1724 -0.9015 -0.2712 4.0990 -0.8592 1.4762 4.3201 -0.5226 1.5101 3.2882 -2.7366 0.0664 2.3510 -2.3654 -1.1122 0.8171 -0.1522 3.3998 -1.7498 2.4302 3.3509 0.2784 1.0703 -0.8593 -2.1484 2.0431 -2.6640 -1.2248 1.3847
-2.5920 -3.2080 -0.3508 -3.6648 1.2514 -0.2141 2.8128 -0.4520 -1.9297 3.0046 3.4451 -0.1541 0.5416 -4.1023 3.1817 2.7606 -4.2522 2.6914 -0.5050 2.3356 1.3732 -3.1406 -1.7870 -0.3658 -3.3479 0.3659 0.9843 1.9116 0.5499 -2.3795 3.0935 2.3860 -1.0970 0.0995 3.3844 -0.7167 0.7345 2.7160 -1.9319 -1.1711 -0.4735 0.1623 2.5833 -1.5221 1.7624 2.4171 -0.3010 1.1016 0.2439 -2.0021 1.4299 -2.4768 -0.8716 0.6807 1.0300 1.3088 -0.1097 1.6940 -3.6654 2.6255 0.1431 2.3049 0.3364 0.0531 -0.7891 0.7389 1.4931 -2.3707 1.9381 1.1693 0.0703 0.5771 1.7278 1.6848 -1.3470 -1.5244 -3.2282 -0.5901 -3.1038 -3.8158 -1.1033 -2.7421 -3.6784 0.6260 -4.1607 2.1697 0.1182 -4.3396 0.7416 -0.9080 -2.7652 1.5453 -0.7599 3.7147 -0.1010 -2.0210 3.8925 3.8310 -0.0643 0.6001 -5.0397 3.4670 -4.2228 -1.8331 -0.1954 -2.9933 -1.3694 -1.3699 -4.2988 0.0259 1.4168 -2.8693 0.9700 1.7649 0.9590 0.0620 -2.6110 2.3084 0.9522 -3.3202 3.8484 1.6859 -0.7306 3.4772 2.8065 -2.0352 -0.9302 3.6836 -0.9295 0.6639 4.2524 -0.3668 1.2010 3.4447 -2.6033 -0.0552 2.2092 -2.5042 -1.1526 0.2397 -0.5574 3.5709 -1.8018 2.1197 3.2873 0.3351 0.9742 -0.5942 -2.6795 1.5657 -2.3862 -1.4139 1.6305
-1.8331 -3.1021 -0.3780 -3.7788 1.0171 -0.5638 1.8652 0.8164 -3.4765 3.4798 2.7954 -2.2942 0.8625 -4.4723 2.3401 2.2005 -3.6455 4.0034 0.0037 2.6466 1.8386 -2.5915 -1.7891 -0.5192 -3.6702 0.1645 0.6991 1.4968 0.4397 -2.1538 3.0574 2.1595 -1.0926 0.3733 3.5655 -0.3695 0.6540 2.7817 -1.6493 -1.2617 -0.0945 0.7791 2.5507 -1.5255 1.9098 2.4231 -0.3191 1.2240 0.1361 -1.7551 1.9205 -2.5072 -0.8607 0.7067 1.0552 1.3799 0.1373 1.5478 -3.5029 2.9856 0.4370 2.5063 0.7039 -0.0145 -0.5861 1.1574 1.4062 -2.2386 2.2522 1.1594 0.1442 0.8277 1.5969 1.6462 -1.2042 -0.7547 -2.9478 -0.4660 -2.1247 -3.7916 -1.1775 -2.0509 -3.5944 0.5750 -4.5130 1.8149 -0.4117 -4.1121 0.4200 -1.4178 -2.8321 1.4969 -0.8279 1.6440 0.0726 -4.0618 4.3581 3.1766 -2.1239 0.6849 -5.2452 2.9184 -3.6453 -2.0510 -0.6879 -2.2500 -1.2739 -1.4239 -4.6178 -0.3686 0.8441 -3.5643 0.8320 1.5643 2.1615 -0.3725 -1.8418 0.4739 0.0484 -2.1894 3.1706 2.8829 -0.2770 3.7514 1.3352 -0.9041 -0.6193 4.0232 -0.4001 1.1339 4.3260 -0.1746 1.0580 3.4207 -2.4403 -0.2921 2.3661 -2.0227 -1.1987 0.6644 0.1078 3.5386 -1.8844 2.1850 3.3224 0.2470 1.0035 -0.7351 -2.3174 2.2451 -2.6359 -1.4516 1.6211
-4.2251 -2.3061 -1.3672 -3.1379 -0.2868 2.3281 2.9101 0.6213 -3.4176 4.1408 1.7465 -0.5972 2.7581 -3.1949 3.6920 0.5190 -3.5970 3.7492 -0.7315 2.5920 0.8155 -2.8929 -1.5732 -1.3360 -3.2671 -0.2100 0.8100 2.2136 0.3109 -2.2137 3.0814 2.4888 -1.1826 0.1028 3.3029 -1.3422 0.8717 2.4479 -2.3468 -1.0260 -0.6209 -0.1920 2.3535 -0.8272 2.3438 2.2015 0.2382 1.4574 0.2492 -1.7417 1.5733 -2.3533 -1.2079 0.0678 0.9908 1.4066 -0.2895 1.4744 -2.9558 3.3454 0.0372 2.4209 -0.1197 0.0699 -0.6782 0.6689 1.3779 -1.8201 2.4025 1.0887 0.3122 0.6082 1.8342 1.6079 -1.4786 -4.1775 -3.2473 -0.8128 -4.4824 -2.5411 -2.4064 -5.0413 -1.6989 -0.9688 -3.9695 0.2477 2.8023 -2.2083 0.1755 2.6705 -3.1710 -1.3213 2.6854 3.1442 -0.2214 -3.8418 4.8292 2.3871 -0.3462 2.8181 -3.7489 4.5002 -2.9679 -0.6699 -1.9541 -2.1551 -2.2251 -1.8242 -3.0766 0.8177 0.4805 -4.3191 -0.4073 0.5772 2.8619 -0.3278 -1.6053 1.3236 -0.2685 -2.4820 3.4750 2.9192 -2.1116 2.8419 3.3250 -0.5163 -0.9015 3.5295 -1.7089 0.6312 4.2275 -1.0940 1.3784 3.0603 -3.1007 0.1632 1.7978 -2.8767 -1.0674 0.2366 -0.7362 3.2407 -0.8611 2.9698 2.9679 1.0062 1.4405 -0.4967 -2.5290 1.6422 -2.2817 -2.1392 0.6384
-1.8430 -2.7872 -0.8869 -3.8740 1.2537 -0.2356 2.1204 -0.7461 -1.9642 3.3450 2.9952 -0.4476 2.5353 -4.2238 2.6821 0.5188 -3.9405 3.7054 0.1095 2.6666 1.7986 -2.6625 -1.5094 -0.7683 -3.7107 0.1737 0.8310 1.2723 0.3589 -2.2480 3.0241 1.9463 -1.3508 0.3844 3.5257 -0.4450 0.6356 2.7242 -1.7197 -1.2949 -0.0677 0.7439 2.4887 -1.5489 1.9197 2.3829 -0.3475 1.2216 0.0816 -1.8173 1.7864 -2.5432 -0.8180 0.6002 1.0572 1.3401 0.0854 1.3945 -3.5529 2.9510 0.4870 2.4914 0.6486 -0.0536 -0.6110 1.0793 1.3388 -2.2897 2.1900 1.1314 0.1140 0.7883 1.5273 1.5406 -1.2864 -0.7790 -2.5638 -1.0030 -2.1560 -3.3529 -1.7707 -1.9765 -3.4357 -0.0157 -4.6024 1.9993 0.1004 -4.2430 0.8318 -1.1753 -2.9398 1.7844 -0.4394 2.1823 -1.2787 -2.7754 4.2499 3.2855 -0.6535 2.7026 -4.9290 3.3443 -3.7133 -1.7776 -0.9418 -2.3788 -0.8259 -1.5767 -4.6489 -0.3903 0.9051 -3.5782 0.6613 1.8058 0.2351 0.0122 -2.1952 1.4664 0.6702 -3.2820 3.6781 1.1016 -1.1133 3.2850 2.2795 -2.3623 -0.6158 3.9685 -0.4533 1.1326 4.3060 -0.2872 1.0737 3.3369 -2.5142 -0.3321 2.3578 -2.0903 -1.2173 0.7178 0.1048 3.4701 -1.8855 2.2421 3.2863 0.2222 1.0235 -0.7979 -2.3987 2.0501 -2.6357 -1.5674 1.3942
-3.6655 -2.1234 -1.8741 -3.7628 -0.2536 1.1726 1.6390 -0.7464 -1.9013 3.8421 0.7311 -1.3598 0.6671 -3.4585 3.7059 2.8160 -2.8945 4.1890 0.5590 3.2511 1.6070 -2.5449 -1.1542 -1.5197 -2.8802 -1.4840 1.0184 1.1144 0.4997 -2.3345 3.0877 1.9206 -1.5460 0.8373 3.8758 -0.7122 0.8266 2.9445 -1.9188 -0.8862 -0.3741 0.0824 2.4973 -0.5502 2.5986 2.3397 0.4997 1.6971 0.4674 -1.5568 1.7508 -1.8785 -1.4237 -0.1526 1.0954 1.6388 -0.0432 1.7777 -2.6990 3.5797 0.7922 2.9186 0.4534 0.2530 -0.4807 0.8699 1.5680 -1.5898 2.6203 1.2387 0.5326 0.8276 1.5613 1.6706 -1.4346 -3.3055 -3.1561 -1.8901 -4.0610 -1.8866 -2.8675 -4.5020 -2.0550 -1.1728 -4.2846 -0.2913 2.1345 -4.5228 -0.2078 0.3877 -3.1784 0.6704 1.1477 1.5104 -1.3822 -2.6252 3.9548 0.5995 -0.4047 0.8584 -4.3231 4.1288 -2.9316 -0.1288 -1.5662 -1.7806 -1.2326 -2.3037 -3.5138 -2.3724 0.9068 -2.3486 -1.6382 1.9638 0.0241 0.4160 -2.3678 1.4528 0.6662 -3.3638 3.3377 2.2988 -2.5437 3.4378 2.6636 -0.8209 -0.0375 4.5312 -0.7056 1.7534 4.4713 -0.6631 1.2767 3.4048 -2.8042 -0.2195 2.7162 -2.1666 -1.0921 0.5502 -0.2837 3.3500 -0.5413 3.2721 3.0732 1.3027 1.6914 -0.2443 -2.3769 1.7730 -1.3689 -2.3927 -0.2318
-4.4260 -1.8698 -1.1301 -3.4895 0.4587 1.3474 3.3910 -0.2949 -1.6169 2.8060 3.5920 -0.2075 1.3777 -4.3040 2.5948 2.3566 -3.0875 4.2618 -0.6649 2.3817 0.9398 -3.0530 -1.2173 -1.1778 -2.8934 -0.9400 1.3896 2.3427 0.4165 -2.2616 3.1268 2.5167 -1.0797 0.0385 3.1940 -1.2269 0.8954 2.4669 -2.2598 -0.9183 -0.7401 -0.1499 2.5981 -1.0449 2.1690 2.3957 0.0636 1.3469 0.4276 -1.9060 1.5235 -2.2014 -1.4130 0.0953 1.0635 1.3107 -0.2633 1.8289 -3.1658 3.1663 0.0687 2.2718 -0.0314 0.2160 -0.8198 0.6540 1.6111 -2.0235 2.2613 1.2278 0.1781 0.5777 1.8938 1.6330 -1.4279 -4.3445 -2.9530 -1.0041 -4.9567 -1.6754 -2.0680 -5.0441 -1.4691 -0.3227 -3.7548 0.7833 2.3592 -4.4028 0.4895 0.7469 -2.7882 1.1829 0.9347 3.6427 -1.0316 -2.1984 3.6153 4.1167 -0.0847 1.4186 -5.0674 3.2099 -3.1690 -0.1494 -1.4006 -2.5087 -1.6510 -2.0276 -3.6969 -1.6476 1.6341 -2.2020 -1.0013 2.2379 1.5135 -0.2769 -2.4371 2.7172 0.7436 -3.2391 3.9180 1.9357 -0.5981 3.5554 2.9443 -1.9948 -0.9850 3.3243 -1.5888 0.4552 4.1647 -0.9485 1.3749 3.1609 -2.9588 0.2456 1.8083 -2.8520 -0.9644 0.0833 -0.7414 3.5214 -1.1259 2.7363 3.1703 0.8235 1.3017 -0.3315 -2.6781 1.6236 -2.0186 -2.4915 0.1858
-2.5063 -1.5099 -1.8220 -4.9045 -0.4167 0.9654 0.5652 -0.1628 -2.6685 3.6778 2.6369 -2.4714 2.2869 -3.0310 4.2883 1.1698 -4.3849 2.8207 0.0936 2.7514 1.5225 -2.4784 -1.9829 -0.3768 -3.5415 0.1575 0.6081 1.8490 0.2645 -2.2516 3.2141 2.1087 -1.2326 0.5137 3.4959 -0.7448 0.8356 2.6123 -1.9514 -1.1397 -0.1214 0.5928 2.6568 -1.3428 2.0165 2.5251 -0.1952 1.2399 0.2589 -1.7006 1.8595 -2.3951 -0.8724 0.6896 1.1707 1.3533 -0.0552 1.6274 -3.3029 3.1418 0.5455 2.5216 0.4100 0.1038 -0.5653 1.0456 1.5213 -2.0842 2.3297 1.2709 0.1846 0.7374 1.7787 1.5336 -1.3799 -3.3998 -0.9205 -2.0436 -2.5054 -2.3715 -2.4983 -1.6306 -0.9070 -2.0554 -5.6834 0.3279 0.7705 -4.9497 -0.6800 2.0267 -5.1452 -1.3042 0.3744 0.6559 -1.0732 -2.9977 4.4468 3.1981 -2.2745 2.6470 -3.8451 4.7023 -1.6362 -2.6747 -0.2538 -3.3732 -2.5905 -0.1965 -3.3333 0.9755 1.3110 -3.5864 0.6186 -0.3849 2.4392 0.4461 -3.1564 2.3305 -0.5626 -1.7186 3.2642 2.9055 -0.4824 3.9205 1.3281 -0.9349 -0.4777 3.9473 -0.8380 1.2676 4.2721 -0.5885 1.2537 3.1849 -2.7842 -0.1039 2.1681 -2.3056 -1.0834 0.4963 -0.2129 3.6388 -1.6343 2.3781 3.4129 0.3940 1.0330 -0.6000 -2.3053 2.1382 -2.4680 -1.3409 1.6783
-3.6415 -2.1438 -1.9681 -3.8705 -0.1093 0.9495 1.5260 -0.7513 -1.8826 3.7555 0.6756 -1.2646 2.2583 -2.5706 4.6334 1.2613 -4.0089 3.1722 0.6683 3.1791 1.7521 -2.4744 -1.2375 -1.5928 -3.0370 -1.3844 0.9339 1.0161 0.5128 -2.2802 3.0280 1.8754 -1.4850 0.8324 3.8521 -0.5638 0.7891 2.9566 -1.7973 -0.9561 -0.3931 0.1293 2.4795 -0.7088 2.5736 2.3210 0.3720 1.7089 0.3719 -1.6142 1.7889 -1.9463 -1.4322 -0.1529 1.0582 1.5923 0.0374 1.6488 -2.8932 3.4719 0.8246 2.8680 0.5797 0.1824 -0.5302 0.9131 1.5063 -1.7055 2.6079 1.1960 0.4578 0.8726 1.4992 1.6533 -1.3600 -3.3469 -3.1969 -1.9453 -3.9821 -1.9114 -2.9826 -4.5012 -2.0061 -1.3068 -3.3326 0.6996 1.4534 -4.8037 -0.2825 1.4940 -4.1409 0.2324 -0.0522 1.2061 -1.4080 -2.5238 4.6848 0.8634 -1.4804 2.5182 -3.3692 5.1424 -2.7648 -0.1946 -1.7658 -1.6577 -1.4445 -2.2965 -3.6956 -2.2547 0.8335 -2.5732 -1.4956 1.9219 -0.0762 0.4519 -2.2993 1.3434 0.6925 -3.3105 3.2782 2.2370 -2.4896 3.3915 2.6164 -0.7651 -0.0433 4.5040 -0.5128 1.7448 4.4530 -0.5268 1.2433 3.4335 -2.6717 -0.2635 2.7627 -2.0444 -1.1129 0.5205 -0.2829 3.3547 -0.7464 3.2152 3.0725 1.1582 1.7049 -0.3703 -2.4072 1.8426 -1.4699 -2.4201 -0.1280
-4.2423 -1.7076 -1.5577 -3.7174 -0.0074 1.5163 1.2028 -0.3527 -2.5854 3.8534 2.9314 -2.1260 2.7458 -3.6249 3.3733 0.5621 -3.4739 4.0243 -0.5952 2.5186 1.0101 -2.9569 -0.9340 -1.3118 -3.0106 -1.3259 1.2383 2.3464 0.3408 -2.1066 3.2371 2.3951 -0.9567 0.2616 3.3373 -1.0997 1.0112 2.5249 -2.1534 -0.9895 -0.5146 0.0160 2.4795 -1.0022 2.3738 2.3626 0.0834 1.5051 0.3173 -1.8071 1.6306 -2.1706 -1.3757 -0.0564 1.1184 1.3704 -0.1472 1.5103 -3.0810 3.3669 0.1788 2.3900 0.0722 0.1600 -0.7090 0.7685 1.4569 -1.9462 2.4308 1.2200 0.2366 0.7032 1.9504 1.6127 -1.3344 -4.0379 -2.7695 -1.7183 -4.7431 -1.3175 -2.4501 -4.9452 -1.6060 -0.7268 -4.1386 -0.0181 2.5277 -4.5476 0.1549 0.8234 -3.0299 0.8393 1.4487 1.5243 -1.0959 -3.1232 4.5361 3.5600 -1.8371 2.8377 -4.3053 4.0748 -3.1910 0.1370 -1.2576 -2.3128 -1.0628 -2.1919 -3.7595 -2.1276 1.2027 -2.3942 -1.5659 2.1103 2.9766 0.5895 -2.9681 2.9202 -0.3456 -1.4745 3.0296 3.2224 -0.2687 3.9732 1.7402 -0.4804 -0.7380 3.6055 -1.4535 0.8096 4.2341 -0.7987 1.5200 3.1710 -2.8757 0.2802 1.9323 -2.7180 -1.0951 0.4087 -0.3887 3.3691 -1.0975 2.9908 3.1716 0.8074 1.4698 -0.4641 -2.5590 1.7096 -1.8434 -2.4105 -0.2207
-2.2694 -2.0500 -1.9262 -3.9339 0.7373 1.2275 2.4560 0.3718 -3.4248 3.5644 2.7091 -2.3997 0.9768 -4.2313 2.9278 2.2431 -3.0976 4.4568 -0.3717 2.5966 1.3108 -3.0488 -1.1909 -0.9409 -3.3346 -0.6290 1.5346 1.8358 0.1486 -2.1635 3.0836 2.1540 -1.1789 0.1962 3.3096 -0.9325 0.7157 2.4217 -2.0616 -1.1725 -0.3954 0.3816 2.5374 -1.1916 2.2336 2.3919 -0.0938 1.3880 0.1910 -1.7274 1.9221 -2.3934 -1.1882 0.4516 1.0375 1.2985 -0.0743 1.6064 -3.1410 3.4189 0.2295 2.3939 0.2655 0.0318 -0.6623 1.0186 1.4371 -2.0044 2.4987 1.1600 0.1658 0.7697 1.7078 1.4637 -1.3737 -1.2870 -1.6138 -2.1302 -2.8080 -2.1219 -2.8756 -2.1294 -3.0638 -1.5383 -4.4604 1.1224 2.1070 -4.6630 0.6731 0.4137 -3.1648 1.4655 0.9561 2.5517 -0.4945 -3.8559 4.3614 3.2253 -2.1912 1.0296 -4.9979 3.5384 -4.0718 -1.5784 -0.8706 -3.1191 -0.1708 -1.3393 -4.1566 -1.3397 1.6881 -2.8010 -0.5743 2.4915 2.4359 -0.5901 -1.6228 0.8499 -0.2879 -2.3544 3.0254 2.9672 -0.4464 3.8349 1.4403 -0.8284 -0.8260 3.6428 -1.1331 0.8459 4.1688 -0.7493 1.1498 3.0057 -2.8782 -0.1279 1.8571 -2.4812 -1.2690 0.5271 -0.0263 3.5035 -1.3882 2.6906 3.2499 0.5494 1.2160 -0.6543 -2.3597 2.1812 -2.1774 -2.2316 0.7089
-1.6985 -3.2635 -0.5494 -3.6398 0.8364 -1.0547 0.7485 1.0570 -3.4152 3.1429 2.2081 -2.6626 2.6221 -3.8381 3.3983 0.3648 -4.0964 3.4751 1.0150 2.8126 2.2611 -2.4633 -1.9719 -0.7994 -3.6040 0.0402 0.2477 0.5490 0.7183 -2.0469 2.8331 1.6332 -1.3978 1.1046 3.7977 0.0540 0.7538 3.1164 -1.2642 -1.1729 -0.2367 0.3922 2.4234 -1.3259 2.3306 2.3339 -0.1421 1.5999 0.0978 -1.7796 1.8352 -2.4369 -0.9720 0.3743 1.0519 1.4674 0.3127 1.3498 -3.4490 3.1621 1.0388 2.6651 1.0474 -0.0151 -0.6055 1.0730 1.3080 -2.1564 2.4383 1.1322 0.2151 0.9694 1.3117 1.6852 -1.1199 -0.6184 -3.0931 -0.5702 -1.9245 -3.9907 -1.3361 -1.9749 -3.7164 0.4075 -4.4577 1.5636 -1.0251 -3.8109 0.1867 -1.9183 -2.7152 1.3963 -1.2179 0.0833 0.5698 -3.9309 4.1106 2.2769 -2.7205 2.6598 -4.6423 3.9594 -3.5032 -2.2444 -1.0183 -2.0651 -1.5025 -1.7070 -4.5539 -0.4998 0.3494 -3.5655 0.7436 1.0896 0.8759 -0.3170 -1.9055 -0.5275 0.7674 -1.8686 3.4051 2.1740 -0.6362 3.1877 0.5965 -1.4068 0.3822 4.5772 0.3088 2.1173 4.2110 0.0424 1.1355 3.6654 -2.1292 -0.3412 3.0896 -1.3555 -1.2640 0.7724 0.3072 3.3680 -1.5743 2.8056 3.2050 0.5058 1.5378 -0.7621 -2.4310 1.9571 -2.5975 -1.5003 1.3206
-2.2885 -1.6546 -2.2654 -3.4515 -0.8287 2.5640 2.6039 -0.8651 -1.6309 4.1028 1.3053 -0.8169 2.3543 -3.2543 3.7835 0.0880 -3.3401 3.9614 -0.4273 2.8801 0.8855 -3.1185 -0.8418 -1.2832 -3.6041 -0.3303 1.1336 1.8198 0.0953 -2.3219 3.1387 2.1165 -1.4671 0.3122 3.3919 -1.3584 0.8461 2.3978 -2.3852 -1.3384 -0.1262 0.1920 2.2347 -0.9637 2.2792 2.1749 0.0918 1.3706 -0.0746 -1.4792 1.7926 -2.5646 -0.9181 0.1552 1.0092 1.4182 -0.2964 1.0991 -2.8543 3.4831 0.2305 2.5695 -0.0977 -0.1578 -0.4337 0.8530 1.1089 -1.7540 2.4927 1.0092 0.3448 0.6338 1.7447 1.4366 -1.5689 -1.3144 -1.1893 -2.4346 -2.8016 -1.7158 -3.2300 -2.1308 -2.6742 -1.9009 -4.3189 -0.5262 3.1608 -2.5626 -0.4032 3.0376 -3.3894 -1.9208 2.6032 2.9668 -1.4763 -2.2940 4.9350 1.8086 -0.7972 2.3740 -3.8311 4.5774 -4.1465 -1.2216 -1.3106 -3.1607 0.2023 -1.6203 -3.5590 0.7657 1.1290 -4.6163 -0.5968 0.8039 0.8232 -0.3303 -2.4675 2.2616 0.2457 -3.3146 3.5278 2.3249 -2.4711 3.0857 3.0715 -0.9329 -0.6759 3.7594 -1.6482 0.9924 4.2320 -1.1969 1.3719 2.9001 -3.2047 -0.0003 1.8555 -2.8276 -1.4025 0.8034 -0.2065 3.1666 -1.1422 2.8077 3.0552 0.7133 1.2519 -0.9508 -2.0852 2.0070 -2.3821 -1.9726 0.3908
-3.4724 -0.1608 -1.8838 -2.6919 -1.0948 2.5329 3.3299 -0.3325 -1.3493 3.5613 3.0621 -2.2197 0.3674 -3.4987 3.7927 2.6241 -3.2340 3.9590 -1.0916 2.2262 0.5702 -3.0481 -1.5230 -1.3418 -3.1271 -0.8084 1.0997 2.3486 0.3059 -2.1556 2.9248 2.5336 -1.0572 -0.1332 3.0481 -1.4914 0.8077 2.2830 -2.4161 -0.9789 -0.8714 -0.2438 2.2746 -0.7969 2.4341 2.1101 0.2328 1.5025 0.3055 -1.8869 1.5597 -2.2827 -1.4919 0.0044 0.8836 1.2812 -0.3283 1.5499 -2.9251 3.4728 -0.2107 2.1600 -0.2752 0.0959 -0.8467 0.6357 1.3647 -1.8525 2.4716 1.0346 0.2164 0.6012 1.7852 1.5596 -1.4600 -4.2875 0.2648 -1.2911 -3.8301 -0.2659 -2.9140 -2.6473 0.5567 -1.8981 -3.4653 -0.7675 3.2367 -1.7817 -0.5466 2.7882 -2.5308 -2.1644 2.7012 3.5595 -1.1735 -1.7786 4.0516 3.8580 -1.9527 0.4874 -4.3439 4.2775 -2.4235 -2.0198 -2.0954 -3.9411 -2.1500 -1.2310 -3.1685 0.2755 0.9474 -4.1595 -1.1767 1.0139 1.5546 -0.4160 -2.3751 2.8258 0.5737 -3.1056 2.5522 3.3718 -0.4578 3.7003 2.0301 -0.4727 -1.1175 3.1709 -1.9510 0.2708 4.0213 -1.1986 1.2885 2.9488 -3.1400 0.2257 1.5514 -2.9933 -0.9304 -0.1934 -0.9962 3.1221 -0.7654 3.1144 2.8399 1.0373 1.4847 -0.3922 -2.7196 1.5917 -2.1343 -2.5427 0.2811
-3.5270 -0.1523 -1.8495 -2.7592 -0.9728 2.5806 3.1112 0.5010 -3.2351 3.5279 3.0295 -2.1219 2.6528 -3.0781 4.0080 0.4761 -3.7108 3.8165 -1.1006 2.2054 0.5816 -3.1753 -1.5153 -1.2576 -3.1472 -0.6730 1.1382 2.3213 0.1859 -2.0938 2.8851 2.4253 -1.0024 -0.1491 2.9705 -1.5063 0.7895 2.1869 -2.4205 -1.0322 -0.9663 -0.2439 2.2207 -0.8521 2.4425 2.0534 0.1658 1.5009 0.2489 -1.9525 1.5795 -2.3749 -1.4716 0.0693 0.8290 1.1920 -0.3367 1.4070 -2.9914 3.4943 -0.2367 2.1013 -0.2768 0.0370 -0.9221 0.6463 1.3156 -1.9124 2.4860 0.9764 0.1391 0.6030 1.7509 1.4650 -1.4545 -4.2123 0.4027 -1.2020 -4.0243 -0.2854 -2.8159 -2.6403 0.4641 -2.0233 -3.5256 -0.5863 3.2620 -1.8197 -0.4841 2.8493 -2.6726 -2.0484 2.7631 3.5755 -0.3123 -3.4971 4.1350 3.7073 -1.7793 2.7153 -3.7785 4.6925 -2.6033 -2.0838 -2.0023 -4.1035 -2.0781 -1.0980 -3.0718 0.4041 0.9597 -4.2143 -0.9238 1.0508 2.9539 -0.3650 -1.3898 1.5182 -0.4815 -2.4240 2.5045 3.2311 -0.3646 3.6558 1.8893 -0.4402 -1.1341 3.0911 -1.9650 0.2608 3.9454 -1.2291 1.2829 2.8360 -3.1504 0.1995 1.4553 -2.9888 -0.9798 -0.2753 -0.9848 3.0636 -0.7959 3.1255 2.7770 0.9754 1.4811 -0.4488 -2.7859 1.6226 -2.2924 -2.5141 0.4002
-3.6679 0.0962 -1.6717 -2.7847 -1.3847 2.5213 3.2726 -0.4601 -1.4496 2.5742 3.6149 -0.4889 2.0382 -2.6741 4.4168 1.1306 -4.2294 3.0167 -1.0491 2.2172 0.5112 -3.2165 -1.3173 -1.3144 -3.0567 -0.7457 1.1639 2.3463 0.2535 -2.2572 2.9890 2.4218 -1.1378 -0.1271 2.9884 -1.5856 0.8530 2.2481 -2.4905 -1.0186 -0.9124 -0.3399 2.3101 -0.9364 2.2602 2.1232 0.1245 1.3731 0.2737 -1.9535 1.4408 -2.3577 -1.4305 -0.0288 0.8877 1.2232 -0.4127 1.4969 -3.0907 3.2514 -0.1882 2.1216 -0.3519 0.0626 -0.8988 0.5361 1.3704 -1.9635 2.3092 1.0216 0.1471 0.5029 1.8005 1.4997 -1.5286 -4.2517 0.0757 -2.5979 -2.8174 0.7649 -1.8313 -4.3090 0.5272 -0.8971 -3.5891 -1.1341 3.2218 -1.8552 -1.0099 2.9573 -2.7379 -2.4762 2.4580 3.8312 -0.9893 -2.0432 3.3679 4.1607 -0.3546 2.1920 -3.4209 5.0346 -2.6528 -1.7263 -2.1630 -4.1030 -1.9548 -1.2080 -2.8121 0.3203 1.2065 -4.1438 -0.8054 1.0179 1.5408 -0.4311 -2.5417 2.8664 0.5545 -3.1754 3.6895 1.9134 -0.4698 3.5553 2.7074 -2.0330 -1.1127 3.0611 -2.0537 0.2243 3.9864 -1.3143 1.3699 2.9207 -3.1831 0.2841 1.5315 -3.0988 -0.9652 -0.2292 -1.0885 3.1869 -0.9403 2.9017 2.8624 0.9198 1.3576 -0.4320 -2.7805 1.4773 -2.2733 -2.5051 0.1745
-3.6272 0.4346 -1.3144 -4.0530 -2.4171 1.3454 1.1196 -0.4191 -2.5808 3.8571 2.8513 -2.1940 1.9455 -2.6632 4.5064 1.3304 -4.2261 2.9530 -0.4763 2.6570 1.0234 -2.9855 -0.9499 -1.2939 -3.0616 -1.2671 1.2604 2.2795 0.2813 -2.1531 3.2231 2.3318 -1.0301 0.3021 3.3616 -1.1597 0.9862 2.4909 -2.2139 -1.0891 -0.3480 0.1443 2.5070 -1.0001 2.2799 2.3683 0.0990 1.4367 0.2898 -1.7516 1.6346 -2.1903 -1.3033 -0.0122 1.1004 1.3814 -0.1938 1.5714 -3.0768 3.2759 0.2304 2.4549 0.0466 0.1206 -0.6427 0.7870 1.4653 -1.9186 2.3775 1.2019 0.2698 0.6762 1.9186 1.5747 -1.3970 -4.3289 0.5739 -0.4881 -4.1948 0.5672 -2.2415 -2.8761 1.2291 -1.2732 -4.6789 -2.2992 2.2362 -3.5324 -3.3764 1.4257 -4.7172 -2.4488 0.4780 1.4244 -1.2391 -3.0059 4.4515 3.5638 -1.9027 2.2508 -3.4086 5.0673 -2.3160 -1.0324 -2.1606 -3.7673 -1.7004 -1.4592 -2.4291 -1.3179 2.1540 -3.5962 -0.3157 1.3448 2.8809 0.5074 -3.0411 2.8714 -0.3946 -1.5258 3.0317 3.1648 -0.3438 3.9431 1.6643 -0.5473 -0.7016 3.6524 -1.4812 0.8909 4.2487 -0.9121 1.4951 3.0900 -2.9749 0.2146 1.9057 -2.7309 -0.9542 0.2613 -0.6586 3.4177 -1.1157 2.8609 3.1770 0.8215 1.3896 -0.4997 -2.4905 1.7458 -1.7909 -2.3154 -0.1596
-3.4788 0.1357 -1.5677 -3.8228 -2.7865 1.0471 1.5847 0.4625 -3.6016 3.7503 0.5667 -1.2542 2.7800 -2.7827 4.1711 0.5687 -3.3025 4.0573 0.3860 3.2392 1.5120 -2.6496 -1.1365 -1.4306 -3.0249 -1.4928 1.0885 1.1007 0.3573 -2.2662 3.0648 1.7919 -1.4839 0.8051 3.8096 -0.8031 0.8278 2.8483 -1.9874 -1.0874 -0.2584 0.2741 2.4080 -0.5361 2.6286 2.2738 0.4756 1.6796 0.3342 -1.5120 1.8471 -1.9907 -1.3704 -0.0506 1.0209 1.5953 -0.0659 1.5230 -2.6320 3.7006 0.6876 2.8826 0.3820 0.1305 -0.4528 0.9442 1.4514 -1.5486 2.6951 1.1546 0.5140 0.8339 1.5303 1.5862 -1.4429 -4.3410 0.1310 -0.8954 -3.8670 0.2168 -2.5886 -2.8856 1.0333 -1.3721 -4.5398 -2.8041 1.8746 -3.1669 -3.6561 1.1537 -4.3904 -2.8837 0.1182 1.2673 -0.3211 -4.0821 4.6691 0.6926 -1.5468 2.8070 -3.3893 4.9422 -1.8706 -1.1313 -2.2028 -3.2889 -1.9930 -1.6761 -2.5193 -1.4536 2.0605 -3.7111 -0.6396 1.0860 1.4841 -0.5755 -1.8401 0.0121 0.2794 -2.3245 3.3790 2.1751 -2.4619 3.4020 2.5085 -0.7276 -0.0513 4.4863 -0.8506 1.7344 4.3818 -0.7259 1.3147 3.2813 -2.8667 -0.2108 2.6210 -2.2658 -1.0078 0.4421 -0.4574 3.2565 -0.5072 3.3062 3.0267 1.2591 1.6354 -0.4083 -2.3011 1.9344 -1.4225 -2.3063 -0.1339
-2.5038 -2.8153 -0.5248 -3.2725 1.4495 2.0425 3.3959 1.6437 0.8052 0.7472 2.5664 0.9425 2.3337 -4.3632 2.6065 0.4098 -3.6739 3.6009 -0.1804 -0.6163 -2.8047 -3.0065 -1.3796 -0.5828 -3.4494 0.7334 0.7106 3.2746 1.8722 -0.5911 0.9278 2.8864 -0.4299 0.6674 1.5994 -3.2627 1.9123 2.2138 -2.6399 -1.1593 0.0328 0.3496 2.3887 -2.2165 0.9277 2.3297 -1.2228 -0.0456 0.0895 -1.7373 1.5179 -2.5152 -0.4934 0.5786 1.1794 0.5269 -1.2414 1.2667 -3.5448 2.7431 0.4869 0.3448 -2.4494 0.0034 -0.7258 0.5397 1.2646 -2.4842 1.7075 1.1656 -0.4616 -0.2279 1.8241 1.8435 -1.1366 -1.4419 -2.8752 -0.7741 -3.0441 -3.4292 -1.2535 -2.6626 -3.2595 0.4630 -3.9932 2.2690 2.1266 -2.2679 1.8736 2.1376 -3.4420 0.7644 2.8792 2.5165 1.4737 1.1772 0.4745 3.3842 1.3924 2.4850 -4.9041 3.4109 -4.1036 -1.4291 -0.5623 -2.7441 -0.9355 -1.5492 -3.2713 1.4401 -0.1105 -4.4987 0.4254 0.6277 3.9035 1.1359 -1.1031 3.7246 2.8531 -0.7885 1.3831 3.8824 -0.4903 -0.0649 2.9522 -0.8868 0.8221 1.3581 -4.3169 -0.2108 2.2415 -3.1463 1.9898 3.2898 -2.8246 2.7905 1.7393 -3.1012 -1.1089 0.5927 -0.4985 3.3185 -2.7647 1.0497 3.2111 -1.0422 -0.6558 -0.7708 -1.9617 2.1432 -2.5746 -1.0522 1.5184
-2.5740 -2.7866 -0.1254 -4.3129 0.7836 2.0202 4.0300 2.9968 -0.9628 1.4329 2.8174 0.9238 0.5262 -3.5717 3.5633 2.4110 -4.4547 2.6493 -0.3367 -0.5847 -2.6909 -3.0400 -1.3371 -0.1936 -3.2035 0.8988 0.9864 3.3990 1.7275 -0.8146 1.1339 2.8730 -0.4645 0.5472 1.5944 -3.2449 1.8741 2.1613 -2.7620 -1.0335 0.0242 0.4346 2.5137 -2.2306 0.8657 2.4247 -1.2324 -0.1028 0.2390 -1.7634 1.5244 -2.3780 -0.4021 0.8404 1.2186 0.5081 -1.2783 1.5274 -3.6142 2.6568 0.4021 0.3484 -2.4108 0.1276 -0.7336 0.5669 1.4168 -2.5081 1.6771 1.2575 -0.4665 -0.2466 1.9225 1.8025 -1.2571 -1.5743 -2.9038 -0.5523 -3.2512 -3.4245 -0.7048 -2.5694 -3.1642 0.9020 -4.9307 1.6873 2.0029 -3.8969 0.6812 3.0275 -4.9637 -0.0727 1.8227 4.6174 2.9420 -1.7362 1.2185 3.6918 1.2931 0.4506 -4.4114 4.0653 -4.1258 -1.3449 -0.0268 -2.8936 -0.9569 -1.2111 -2.5492 1.7271 1.2904 -3.6326 1.1883 0.0190 3.4972 1.4356 0.2354 3.9590 1.0016 -1.4156 1.3846 3.8802 -0.8206 0.0517 2.7522 -0.5748 0.5763 1.3492 -4.3088 -0.2876 2.2701 -3.0358 1.9678 3.2328 -2.9668 2.6832 1.6542 -3.3054 -1.0212 0.6759 -0.3441 3.4418 -2.7877 0.9585 3.2847 -1.0639 -0.7450 -0.6117 -2.0002 2.1561 -2.3505 -0.8893 1.8201
-3.2580 -2.3727 -1.0545 -3.0563 1.5163 1.3477 3.4510 3.4385 -0.4035 0.7173 4.1285 -0.3799 0.8707 -3.7236 3.5965 2.7773 -4.4558 2.5888 0.0699 -0.7859 -2.7672 -2.9294 -2.2563 0.4275 -3.3923 0.2335 0.6016 3.0181 2.0833 -0.3599 0.5557 2.7235 -0.2078 0.5348 1.5575 -3.1274 1.6658 2.3421 -2.4759 -1.1247 -0.5771 0.1640 2.7378 -2.0230 1.0745 2.5656 -1.0106 0.1361 0.3514 -2.0469 1.4485 -2.3665 -0.8873 0.8667 1.1935 0.5142 -1.1384 1.8415 -3.6756 2.6599 0.5626 0.2588 -2.3667 0.1483 -1.0094 0.5145 1.6298 -2.5462 1.7317 1.2939 -0.4782 -0.1302 1.6199 1.9209 -0.9906 -4.0898 -1.7190 -1.3322 -3.5540 -3.4013 -1.2870 -2.3955 -2.1277 -1.6803 -3.8664 2.2427 1.2280 -2.1417 1.9701 0.9592 -2.9217 1.3300 2.4170 4.2759 3.4872 0.1099 1.5132 4.3963 0.1105 0.9074 -4.5587 4.1108 -2.2301 -3.0580 0.6889 -3.8378 -2.4668 1.0068 -3.4574 0.4543 -0.4717 -4.3913 -0.0960 0.9139 3.0233 1.7671 0.6880 3.7661 1.4971 -0.9042 -0.4552 2.4800 -0.5472 0.6074 2.5056 0.8648 0.7161 1.3892 -4.1906 -0.4364 2.0398 -2.9824 1.5770 3.4187 -2.6460 2.6123 2.0201 -2.9336 -1.1928 0.0452 -0.6328 3.7374 -2.4084 1.2544 3.4412 -0.6559 -0.3990 -0.5010 -2.4957 1.9504 -2.1839 -0.9244 1.9483
-2.5556 -2.6099 -1.1855 -3.0692 0.8543 2.4337 3.1302 1.8517 0.8829 1.1230 4.1684 -0.6428 0.2756 -3.4885 3.6763 2.3862 -4.1095 3.1100 -0.0407 -0.7945 -2.7831 -3.0794 -1.2182 -0.8552 -3.4557 0.4311 1.0213 3.1545 1.9695 -0.5319 0.7428 2.8087 -0.4541 0.6747 1.4577 -3.2877 1.8580 2.1715 -2.6518 -1.1977 -0.0621 0.2997 2.4335 -2.0754 1.1419 2.3714 -1.1314 0.1220 0.0874 -1.7080 1.5970 -2.5256 -0.6726 0.4749 1.1913 0.4858 -1.2194 1.4012 -3.4105 2.9345 0.5518 0.2182 -2.4406 -0.0045 -0.7466 0.5675 1.2909 -2.3736 1.8810 1.1778 -0.4490 -0.1559 1.7413 1.8501 -1.1433 -1.4653 -2.6258 -1.2565 -2.9582 -2.9441 -2.1477 -2.8644 -3.3362 -0.4265 -3.7919 1.5778 2.8226 -2.0822 1.3274 2.4517 -3.0533 -0.0060 3.1100 4.0419 1.6700 1.1693 1.8598 4.3566 -0.0374 0.2921 -4.2589 4.2839 -4.1738 -1.2924 -0.7930 -2.8651 -0.5338 -1.6839 -3.4368 1.3072 0.3601 -4.4920 0.0724 1.0421 3.8330 1.2112 -0.9378 3.5960 2.9441 -0.7735 -0.2688 2.6988 -0.8571 0.6830 2.6179 0.6231 0.8724 1.2005 -4.3305 -0.2468 2.0420 -3.2102 1.8787 3.2398 -2.8853 2.7804 1.7340 -3.0610 -1.1382 0.5089 -0.5395 3.3815 -2.5684 1.3397 3.2731 -0.9300 -0.4500 -0.7909 -1.9417 2.1918 -2.5271 -1.4888 1.2039
-2.7756 -2.8073 0.0468 -3.5698 1.6803 0.2763 4.0563 1.0437 -1.5277 1.6637 4.0856 0.0277 2.5699 -4.0974 2.8889 0.4702 -4.8106 2.3325 -0.6013 -0.2851 -2.5270 -3.1869 -1.3419 0.1003 -3.2133 0.7992 1.4713 3.2933 1.7287 -0.5430 1.0891 2.7794 0.0651 0.3022 1.9344 -2.8454 1.6677 2.4196 -2.3759 -1.0863 -0.0557 0.6863 2.3797 -2.4816 0.5618 2.2721 -1.3579 -0.2533 0.1995 -1.9797 1.4907 -2.4189 -0.4859 1.1277 1.0804 0.5736 -1.0984 1.3837 -4.0086 2.2504 0.1823 0.5871 -2.1796 0.0582 -0.8498 0.6616 1.3412 -2.7878 1.4326 1.1403 -0.5266 -0.2000 1.8058 1.8486 -0.9453 -1.7927 -2.9281 -0.4150 -3.4907 -3.3727 -0.5623 -2.7644 -3.2613 1.0427 -4.0679 2.5910 0.6234 -4.2549 1.1718 -0.4086 -2.6846 1.9900 -0.2868 4.7578 0.5551 -1.0648 1.0152 4.7052 0.4019 2.6799 -4.9662 3.3326 -4.2541 -1.3289 0.3658 -3.1144 -0.9132 -0.9050 -4.1367 0.5228 1.9947 -2.6296 1.3967 2.1836 3.7462 2.7203 -0.4323 3.4062 1.2170 0.4192 0.0197 2.8756 -0.1487 1.1985 2.4038 1.0877 0.2615 1.8349 -3.9325 -0.5058 2.5848 -2.4969 1.7670 3.5073 -2.4374 2.4219 1.9911 -3.0483 -1.0939 0.6611 -0.0315 3.2694 -3.1014 0.4996 3.0836 -1.1497 -0.9428 -0.5990 -2.2675 2.1697 -2.3418 -1.0442 2.0676
-4.1439 -2.4230 0.8351 -3.5672 0.9890 -0.3819 4.1511 1.8353 -1.1843 0.8215 2.4081 1.4232 1.2090 -4.0010 3.0756 3.0083 -4.6494 1.8411 0.0065 -0.2783 -2.8164 -2.8202 -1.9891 0.2140 -3.0764 0.4708 0.9679 3.1679 2.3003 -0.2679 0.7416 2.8950 0.0904 0.4837 2.0875 -2.9106 1.6566 2.7916 -2.2424 -0.9380 -0.4092 0.2077 2.9257 -2.0396 0.6446 2.7151 -0.9171 -0.1515 0.5657 -2.0856 1.1690 -2.1659 -0.7768 0.9096 1.2943 0.7812 -1.1324 2.1049 -3.8643 2.0746 0.5547 0.6992 -2.3266 0.3333 -0.9298 0.3941 1.8513 -2.6297 1.3031 1.4438 -0.3373 -0.2646 1.7368 2.1524 -0.8344 -4.0228 -2.6753 1.8933 -4.5207 -3.3126 0.3189 -4.9133 -1.6503 0.7467 -4.1243 1.9202 -0.2374 -4.2362 0.2751 -0.8708 -2.7454 1.2117 -1.0686 4.9934 1.7859 -0.7014 0.1149 1.7506 1.5346 1.1221 -4.9390 3.3518 -2.9684 -1.7919 -0.8543 -2.1424 -2.8501 0.2672 -3.9438 0.2629 1.6058 -2.5355 1.2795 1.4768 3.3920 3.3537 -0.0628 3.2911 1.7557 0.6742 0.9806 3.9651 0.1227 -0.2948 2.8089 -0.2539 0.5976 2.0560 -3.9967 -0.4745 2.5449 -2.6462 1.5380 3.8798 -2.2263 2.5534 2.5732 -2.8363 -1.0154 0.3080 -0.5018 3.9286 -2.4519 0.7128 3.5630 -0.5142 -0.6951 -0.2667 -2.5818 1.6621 -1.9304 -1.0443 1.9477
-2.7131 -2.9980 0.5743 -3.6185 1.4238 -0.0299 3.8369 3.1359 -0.6535 1.2968 2.6760 1.2443 0.5971 -4.6698 2.1336 2.6454 -4.0959 2.9765 -0.4366 -0.4004 -2.6793 -3.1706 -1.5560 0.3977 -3.1063 0.8272 1.2804 3.2499 1.8391 -0.6386 0.9518 2.8533 -0.1229 0.3450 1.8635 -3.0091 1.6624 2.4295 -2.4974 -1.0687 -0.1878 0.4604 2.5690 -2.3247 0.5799 2.4193 -1.2262 -0.2625 0.3357 -1.9402 1.4356 -2.3229 -0.5015 1.1397 1.1171 0.5940 -1.1948 1.6758 -3.8678 2.2761 0.2751 0.5259 -2.3179 0.1409 -0.8576 0.5592 1.5220 -2.6823 1.4206 1.2279 -0.4812 -0.2723 1.7642 1.9091 -1.0435 -1.7796 -3.1882 0.0384 -3.4640 -3.6820 0.1628 -2.5830 -3.2542 1.6303 -4.0022 2.4336 0.1473 -4.4367 0.8275 -0.4447 -2.8355 1.5056 -0.7892 4.7572 3.0313 -0.3561 1.1384 3.5272 1.6891 0.5878 -5.3973 2.7921 -4.2010 -1.5046 0.7762 -3.2219 -1.3319 -0.6739 -3.9591 0.6696 1.9515 -2.4646 1.5679 1.7751 3.3792 1.4259 0.3669 3.8198 1.2164 -1.3371 1.1435 3.9023 -0.3829 -0.1266 2.6903 -0.2161 0.3514 1.7442 -4.0947 -0.5097 2.4743 -2.7019 1.7066 3.5202 -2.5830 2.4765 2.0212 -3.1116 -1.1336 0.4636 -0.3126 3.4985 -2.8865 0.5680 3.2428 -0.9665 -0.9218 -0.4564 -2.2507 2.1108 -2.1237 -0.8474 2.1605
-3.2369 -1.4200 -1.6992 -3.2698 1.0936 2.0678 3.1611 1.8009 0.8953 1.0909 4.0899 -0.5463 2.6397 -3.2591 3.7705 0.8393 -4.4673 3.0420 0.0707 -0.9870 -2.6775 -2.8153 -1.9451 -0.3340 -3.4818 0.2363 0.8259 3.1228 1.9541 -0.5165 0.7010 2.7309 -0.3609 0.5643 1.3255 -3.1783 1.7371 2.0988 -2.5930 -1.1241 -0.2534 0.4561 2.6098 -2.1499 1.1464 2.4804 -1.1828 0.1557 0.2643 -1.8548 1.7004 -2.4278 -0.8826 0.7136 1.1856 0.4026 -1.1213 1.5985 -3.5191 2.9506 0.5637 0.0784 -2.3371 0.1020 -0.8865 0.6900 1.5019 -2.4755 1.9208 1.2524 -0.5358 -0.0641 1.6924 1.7854 -1.0764 -4.1474 -0.8160 -1.6380 -3.4545 -2.2603 -2.3683 -2.4511 -0.8188 -2.1592 -4.1457 1.7250 2.2440 -2.4013 1.7491 1.9471 -3.1157 0.4744 2.9572 4.0947 1.6864 1.1439 0.3308 4.6463 -0.3058 2.8725 -4.0377 4.3213 -1.9974 -2.6636 -0.4642 -3.6544 -2.5295 0.0696 -3.4555 0.8839 -0.0595 -4.4860 -0.2026 0.8713 3.8183 1.2375 -0.9670 3.5088 2.9542 -0.7471 -0.3192 2.6172 -0.7413 0.6778 2.5406 0.7168 0.7170 1.0873 -4.2331 -0.3854 1.8524 -3.0434 1.6972 3.1647 -2.8347 2.6616 1.7005 -3.0353 -1.1183 0.3439 -0.3662 3.5714 -2.6305 1.3010 3.3510 -0.9373 -0.4465 -0.5753 -2.1531 2.3227 -2.4160 -1.3912 1.6841
-4.1400 -2.5136 0.7222 -3.5263 0.9257 -0.4941 3.6421 3.5020 -0.0122 -0.5324 2.8185 -0.2409 1.0900 -4.0976 3.1170 2.9448 -4.7286 1.9569 0.1816 -0.3625 -2.7959 -2.8136 -2.0650 0.1216 -3.0994 0.3923 0.8714 3.2024 2.1513 -0.1181 0.8085 2.8376 0.2223 0.7078 1.9904 -2.9051 1.8030 2.7114 -2.1304 -0.9382 -0.4924 0.1844 2.9061 -2.1080 0.7815 2.7256 -0.9783 -0.0111 0.5265 -2.1660 1.2069 -2.1877 -0.8547 0.8436 1.3283 0.7198 -1.0304 2.0293 -3.9488 2.1582 0.6981 0.6198 -2.2816 0.3243 -1.0035 0.4366 1.8066 -2.7071 1.3894 1.4570 -0.4013 -0.1661 1.7811 2.0849 -0.7186 -4.0529 -2.6778 1.8007 -4.4570 -3.4560 0.2626 -4.9316 -1.7800 0.5434 -4.0706 1.8671 -0.3670 -4.1884 0.2254 -1.0106 -2.6761 1.1342 -1.1496 4.5098 3.4810 0.4264 -0.6685 3.6247 -0.7685 1.0663 -5.0181 3.4565 -2.9481 -1.8557 -0.9462 -2.1273 -2.9196 0.1737 -3.9968 0.1775 1.4641 -2.5824 1.1944 1.4145 3.2325 1.7148 0.8858 3.9280 1.6280 -0.7491 0.8202 2.3988 1.2259 1.1093 3.8878 0.3282 0.9441 1.9267 -3.9699 -0.2720 2.4577 -2.7753 1.6724 3.7979 -2.1337 2.7595 2.4981 -2.6282 -0.9776 0.2515 -0.5005 3.9053 -2.5209 0.8867 3.5918 -0.5667 -0.5204 -0.3250 -2.6728 1.6537 -1.9904 -1.1244 1.8891
-4.2562 -2.3154 0.8593 -3.5794 0.9743 -0.4723 3.6808 3.4274 -0.1771 -0.5201 2.7595 -0.3175 2.6621 -4.7813 1.7638 1.3082 -3.9801 3.4211 0.1263 -0.4628 -2.7911 -2.9023 -1.9617 0.2595 -3.0830 0.5359 0.9027 3.2121 2.0821 -0.2121 0.8298 2.8131 0.1155 0.6911 1.8791 -2.9744 1.8103 2.5991 -2.2343 -0.9766 -0.4684 0.1941 2.8468 -2.1392 0.8358 2.6822 -1.0410 -0.0035 0.4657 -2.1170 1.2870 -2.2180 -0.7444 0.9139 1.3142 0.6503 -1.0731 1.8630 -3.8589 2.3433 0.6659 0.5251 -2.3130 0.2802 -0.9880 0.4671 1.7342 -2.6820 1.4698 1.4231 -0.4416 -0.1706 1.7870 2.0171 -0.8040 -4.1699 -2.5360 1.9274 -4.6600 -3.2041 0.3626 -4.9849 -1.5117 0.7239 -4.0649 1.9525 -0.3968 -4.3133 0.2715 -0.8765 -2.7660 1.0720 -1.1965 4.6406 3.3901 -0.0253 -1.0116 3.4217 0.1985 2.9487 -5.4691 2.4027 -3.0136 -1.8059 -0.8203 -2.2580 -2.8427 0.3717 -3.9465 0.4002 1.5652 -2.5061 1.3580 1.3460 3.2372 1.6985 0.8133 3.9205 1.5076 -0.8177 0.8690 2.4316 1.1414 1.1232 3.8697 0.1474 0.9108 1.7841 -4.0406 -0.2765 2.3704 -2.8396 1.7037 3.6876 -2.2708 2.7576 2.3472 -2.7316 -0.9884 0.3163 -0.4463 3.8369 -2.5679 0.9603 3.5517 -0.6665 -0.5357 -0.3837 -2.5819 1.7819 -2.0039 -0.9746 1.9656
-4.4133 -1.8498 -1.0521 -2.7189 0.7737 1.1933 2.3740 2.4006 1.4199 -0.8358 2.2590 -1.2781 1.2458 -4.3155 2.9133 2.3924 -2.9090 4.3035 1.2155 -0.9719 -2.7573 -2.9915 -1.3373 -1.2215 -2.6768 -0.7430 1.2774 2.7017 2.6041 0.0519 0.2593 2.7400 -0.5162 1.3407 1.3955 -3.2172 2.0034 2.4436 -2.3350 -0.7856 -0.9330 -0.3371 2.8483 -1.4853 1.7490 2.7571 -0.5662 0.7078 0.4922 -1.9874 1.4817 -2.1041 -1.4569 0.0387 1.5152 0.6017 -1.0127 1.8298 -3.1448 3.2489 1.3559 0.1697 -2.3411 0.3777 -1.0648 0.4237 1.7136 -2.1888 2.1373 1.5325 -0.3201 0.0673 1.6002 2.0647 -0.8900 -4.4250 -2.8810 -0.6872 -4.9294 -1.8282 -2.0182 -4.9884 -1.2224 -0.3653 -3.0776 1.1874 2.1410 -3.3880 1.1167 0.3996 -1.7243 1.1875 1.0225 3.1630 2.6301 1.9396 -1.6085 2.7954 -1.0298 1.1423 -4.9074 3.6894 -3.0254 -0.2986 -1.5718 -2.5245 -1.9177 -2.0294 -3.6870 -1.1136 1.4853 -2.0949 -1.0218 2.1636 3.6724 2.1399 -0.1511 2.8258 3.6842 -0.0936 0.0238 2.5871 0.5414 0.3262 3.8233 -0.6771 1.9082 1.2219 -4.1344 0.3089 1.6575 -3.4673 1.7287 3.4647 -2.6175 3.0913 2.3517 -2.4638 -0.8316 -0.0403 -0.8227 3.8047 -1.6389 2.2404 3.6594 -0.0470 0.3984 -0.3642 -2.5818 1.7892 -2.0152 -2.5277 0.2637
-3.3330 -0.8079 -1.5445 -4.1999 -0.0889 2.2066 3.7065 3.2804 -0.9976 -0.5243 2.5630 -0.9556 0.9967 -3.1838 4.0906 2.9568 -4.0015 3.2694 0.1629 -1.1344 -2.5755 -2.9704 -1.6556 -0.3337 -2.9889 0.2975 1.3728 3.2152 1.9845 -0.6700 0.8294 2.7710 -0.5843 0.7053 1.1023 -3.3170 1.8370 1.9718 -2.7840 -0.9416 -0.4405 0.3231 2.8985 -1.8641 1.3622 2.7261 -0.9936 0.2872 0.5119 -1.8189 1.7403 -2.2355 -0.9170 0.8033 1.3370 0.3699 -1.1755 1.9997 -3.2500 3.1879 0.6905 -0.0545 -2.3491 0.3141 -0.9067 0.6820 1.7895 -2.2821 2.0892 1.4577 -0.4829 -0.0419 1.8020 1.7660 -1.2522 -4.0374 -0.0147 -1.2809 -3.8140 -1.4300 -2.3075 -2.4472 -0.3562 -1.9978 -4.8120 0.7956 2.4100 -3.8844 -0.5081 3.1672 -4.8316 -0.8215 1.6987 4.5967 3.3522 -0.6113 -1.0442 3.2843 -0.5609 1.0018 -3.9529 4.7003 -2.3504 -2.4970 -0.6708 -3.8870 -2.1123 0.0595 -2.3089 0.8609 2.0257 -3.2870 0.9896 0.5780 3.2095 1.8977 0.4223 3.9285 1.2615 -1.0767 0.8898 2.7076 0.5070 1.0939 3.7981 -0.8660 0.9081 0.7616 -4.3349 -0.2616 1.6131 -3.2835 1.7392 3.0172 -3.0943 2.7833 1.5941 -3.1976 -0.9630 0.3187 -0.3501 3.8968 -2.2233 1.6007 3.6039 -0.7315 -0.2959 -0.3373 -2.1898 2.3060 -2.1290 -1.6387 1.6190
-2.7604 -2.9132 0.1950 -3.5939 1.5037 -0.1660 2.8189 1.6178 1.3945 -0.5962 2.8951 -0.7749 2.5325 -4.7457 1.9496 0.7163 -4.1473 3.1844 0.3806 -0.5104 -2.9915 -3.1609 -1.4503 0.0684 -3.0689 0.8635 1.1173 3.0055 2.0596 0.0548 0.5894 2.7555 -0.0091 0.9946 1.8249 -3.0999 1.9439 2.5692 -2.1627 -1.0293 -0.1872 0.3166 2.5922 -2.3383 0.6704 2.5013 -1.2264 -0.1590 0.2858 -1.9977 1.3334 -2.3240 -0.4800 0.9242 1.2774 0.6103 -1.1174 1.5150 -3.9235 2.2905 0.8371 0.4809 -2.4391 0.1569 -0.8861 0.4833 1.4816 -2.7302 1.4158 1.3065 -0.4952 -0.2396 1.6927 1.9701 -0.7597 -1.8257 -3.1104 -0.3369 -3.5291 -3.5537 -0.2514 -2.6507 -3.2124 1.2419 -3.8200 2.5608 0.0069 -4.5155 1.0162 -0.4990 -2.8705 1.4522 -0.9840 3.5581 1.9677 1.9207 -1.2161 3.4315 -0.2517 2.6646 -5.4580 2.6110 -4.2134 -1.3762 0.3726 -3.1214 -1.1644 -0.9893 -3.9146 0.7040 1.7979 -2.4045 1.5766 1.6224 3.8057 1.4629 -0.3950 3.3569 3.0981 0.0916 0.3261 2.2626 0.9328 0.9427 3.7628 0.2407 1.4282 1.7138 -4.0977 0.0165 2.3075 -3.1747 1.8049 3.6543 -2.2082 2.9723 2.3613 -2.4890 -1.0377 0.4633 -0.4625 3.5300 -2.8839 0.7063 3.3681 -0.9359 -0.7480 -0.5588 -2.3221 1.9348 -2.1906 -0.8976 1.9287
-4.5909 -1.6225 -0.8761 -2.9370 0.8088 1.0773 2.7597 3.8571 -0.1154 0.0108 2.5952 0.7425 3.0236 -3.6577 3.4406 0.7910 -3.6024 3.8794 1.1462 -1.1490 -2.8109 -3.1035 -1.4102 -1.1221 -2.6926 -0.6691 1.3359 2.6902 2.4344 -0.0608 0.2186 2.5691 -0.6644 1.2485 1.2152 -3.3011 1.9646 2.2615 -2.4590 -0.8595 -1.0042 -0.3210 2.8203 -1.5608 1.7005 2.7211 -0.6739 0.6338 0.4670 -2.0832 1.4543 -2.1845 -1.4722 0.1237 1.4740 0.4528 -1.0978 1.7570 -3.2337 3.2334 1.2895 -0.0014 -2.4140 0.3318 -1.1635 0.3960 1.6945 -2.2717 2.1110 1.4906 -0.4419 0.0025 1.5793 1.9195 -1.0012 -4.7967 -2.6333 -0.5136 -5.1366 -1.4848 -1.8169 -5.0036 -0.9025 -0.1655 -3.1582 1.3229 2.0181 -3.7781 0.9745 0.4000 -2.0587 1.2807 0.6439 3.3165 4.1454 0.6277 -0.7456 3.1833 0.9093 3.1265 -4.0910 4.3151 -2.9715 -0.4546 -1.6447 -2.7737 -2.1890 -1.8238 -3.6186 -1.1226 1.7098 -1.9815 -0.7603 2.1656 2.5094 2.1485 0.9806 3.6731 2.0499 -0.3523 0.1784 3.6041 -1.0239 -0.6182 2.0367 -1.1267 1.7711 1.0309 -4.2425 0.2058 1.4853 -3.4931 1.7096 3.2830 -2.7582 3.0464 2.1387 -2.6080 -0.9062 -0.0843 -0.7516 3.7874 -1.6903 2.1775 3.6218 -0.1676 0.2973 -0.3891 -2.6708 1.7773 -2.1196 -2.5292 0.4112
-3.3641 -0.9855 -1.7729 -3.8333 -0.8821 2.6639 4.2540 1.3778 -1.3939 0.6587 2.7449 0.5394 0.6528 -2.8629 4.1052 2.6527 -3.7359 3.4575 0.1885 -1.0992 -2.6795 -3.3932 -0.2345 -0.4497 -2.6830 -0.1620 1.9747 3.2095 2.1006 -0.7551 0.8096 2.8453 -0.8691 0.7720 1.1105 -3.4628 1.9133 1.9707 -2.9350 -1.0280 -0.2086 0.1880 2.7215 -1.7135 1.4227 2.6225 -0.8980 0.2968 0.3195 -1.6510 1.6436 -2.3438 -0.7254 0.5754 1.3483 0.4271 -1.2909 1.7044 -2.9934 3.2664 0.7225 -0.0197 -2.4673 0.1984 -0.7546 0.5585 1.5677 -2.0980 2.0970 1.3852 -0.3838 -0.1230 1.8345 1.8119 -1.3969 -2.4187 -0.8353 -2.2984 -4.1646 -0.6153 -2.4236 -3.5237 -2.0581 -1.6275 -4.0545 -0.3891 3.6164 -3.5767 -1.9243 2.8769 -4.7481 -0.8628 2.0665 5.0615 1.5133 -0.8699 -0.1012 2.1628 0.7057 0.5623 -3.6394 4.6991 -4.4026 -0.3437 -0.0384 -3.2592 0.8373 -0.6429 -1.8166 -0.2291 2.6419 -2.9134 0.9073 1.8993 3.4565 3.1652 -0.8386 3.2159 1.8532 0.3115 1.1562 3.8638 -1.0859 -0.1743 2.7383 -1.3382 0.9816 0.7345 -4.4670 -0.1835 1.6434 -3.4547 1.8431 3.0091 -3.2744 2.8498 1.5621 -3.3350 -1.0040 0.4717 -0.5637 3.7026 -2.0550 1.7417 3.5355 -0.6680 -0.2420 -0.5722 -1.9994 2.1580 -2.3420 -1.8235 0.5903
-3.2430 -1.2799 -1.9313 -3.8217 -0.9969 2.5367 3.1026 2.0665 0.8085 1.1121 4.1343 -1.1293 0.4310 -2.9018 4.1036 2.4238 -3.8210 3.4989 0.3626 -1.1330 -2.7162 -3.3941 -0.4075 -0.6929 -2.8536 -0.1156 1.7594 3.2124 2.0707 -0.6082 0.7778 2.7914 -0.7826 0.9346 1.1043 -3.4256 2.0440 1.9510 -2.8188 -1.0720 -0.2349 0.1027 2.6059 -1.7781 1.4949 2.5668 -0.9484 0.3776 0.1982 -1.6603 1.6412 -2.3962 -0.7620 0.4326 1.3780 0.4082 -1.2325 1.5011 -3.0508 3.2923 0.8459 -0.0413 -2.4528 0.1338 -0.7701 0.5472 1.4215 -2.1387 2.1307 1.3532 -0.4124 -0.0778 1.8533 1.8023 -1.2891 -3.9546 -0.9581 -2.6994 -3.4509 -2.3301 -1.7041 -2.2399 -1.2035 -2.3562 -4.1930 -0.4523 3.4111 -3.3267 -1.9058 2.8939 -4.6846 -1.2841 1.9281 4.0039 1.9759 1.1627 1.8043 4.4400 -0.5189 0.3903 -3.6081 4.7842 -4.4214 -0.5287 -0.3256 -3.2928 0.6466 -0.9810 -1.9933 0.0930 2.4084 -3.3246 0.8566 1.5663 3.9635 1.3316 -0.9073 3.6015 3.0525 -0.9016 -0.2026 2.5857 -1.2218 0.6658 2.7376 0.3055 1.1911 0.7463 -4.4249 -0.0208 1.6364 -3.4523 2.0273 2.9849 -3.1762 3.0072 1.5184 -3.1238 -1.0182 0.4897 -0.6033 3.5686 -2.1455 1.8385 3.5015 -0.7187 -0.1262 -0.7192 -1.9814 2.1271 -2.3602 -1.8550 0.5275
-3.4163 -0.8807 -1.7623 -3.9342 -0.7229 2.6537 4.2612 1.2643 -1.3657 0.6892 2.7050 0.5437 2.6445 -3.6497 3.4249 0.5592 -3.0603 4.1182 0.1564 -1.1310 -2.6855 -3.4381 -0.1034 -0.4548 -2.7666 -0.0176 1.9765 3.2258 2.0177 -0.7467 0.8364 2.7987 -0.8669 0.7860 1.0675 -3.4666 1.9444 1.8997 -2.9309 -1.0740 -0.1081 0.2268 2.6204 -1.7901 1.4263 2.5453 -0.9836 0.2939 0.2214 -1.6224 1.6619 -2.4094 -0.6017 0.5891 1.3268 0.3796 -1.2897 1.4767 -2.9771 3.3191 0.7054 -0.0597 -2.4702 0.1279 -0.7296 0.5725 1.4544 -2.1268 2.1062 1.3268 -0.4227 -0.1197 1.8467 1.7510 -1.3933 -2.4626 -0.7644 -2.2813 -4.2029 -0.5038 -2.4260 -3.6044 -1.9460 -1.5976 -4.1517 -0.2345 3.6097 -3.7003 -1.7721 2.8581 -4.8457 -0.6801 2.0517 4.9261 1.0659 -0.6845 -0.1107 2.1811 0.7171 2.7711 -4.0308 4.3203 -4.4542 -0.1833 -0.0507 -3.2796 0.9617 -0.6669 -1.9077 -0.0788 2.6552 -2.9959 1.0511 1.8823 3.4959 3.0750 -0.8529 3.2201 1.7932 0.3252 1.1926 3.8125 -1.0875 -0.1500 2.6981 -1.3318 0.9917 0.6848 -4.4688 -0.1556 1.6242 -3.4642 1.9105 2.9382 -3.2749 2.8728 1.4595 -3.3175 -1.0277 0.5078 -0.5782 3.5959 -2.1477 1.7431 3.4619 -0.7903 -0.2532 -0.6774 -1.9182 2.1974 -2.4289 -1.6993 0.6154
-3.6236 0.1114 -1.3028 -4.0313 -1.1567 2.1374 3.1177 3.7065 -0.7788 0.2311 2.7257 0.4873 0.6871 -3.1402 4.0612 2.9394 -3.3570 3.8478 0.8932 -1.3933 -2.6868 -3.1047 -1.2550 -0.8726 -2.7715 -0.5155 1.5807 2.8844 2.3341 -0.4751 0.3747 2.5699 -0.9187 1.1251 0.8880 -3.4521 1.9621 1.9692 -2.7832 -0.9125 -0.5897 0.0285 2.8657 -1.5051 1.6941 2.7667 -0.7179 0.5501 0.4648 -1.7863 1.6817 -2.1772 -1.2514 0.3646 1.4869 0.3506 -1.2004 1.8727 -2.9148 3.4543 1.1571 -0.2255 -2.4382 0.3304 -0.9461 0.5556 1.7162 -2.0528 2.2591 1.5162 -0.4180 -0.0105 1.6736 1.8074 -1.2722 -4.3705 0.4910 -0.5988 -4.1064 0.0365 -2.2828 -2.8182 0.8460 -1.3861 -4.4182 -0.5478 2.9615 -3.8221 -2.1572 2.5277 -4.8203 -1.2290 1.3845 4.0641 3.8013 -0.9822 0.6328 3.5803 0.7229 0.7355 -3.8937 4.6882 -2.5764 -1.7138 -1.7188 -3.9634 -1.9108 -0.6795 -2.0326 -0.4938 2.3913 -2.9702 0.5340 1.3346 2.7288 2.2589 0.6056 3.7938 1.7751 -0.7218 0.3697 3.5684 -1.3727 -0.5162 2.0513 -1.2854 1.5643 0.5677 -4.3997 0.0895 1.2071 -3.6038 1.7385 2.9676 -3.1726 3.0212 1.7659 -2.9949 -0.8708 -0.1745 -0.8963 3.8488 -1.6911 2.1182 3.6818 -0.3379 0.1046 -0.4202 -2.2334 2.1261 -2.0077 -2.3058 0.6194

$$$$
