111
 OpenBabel11071810143D

 21 24  0  0  0  0  0  0  0  0999 V2000
    2.1020    3.5860   -2.3720 N   0  0  0  0  0  0  0  0  0  0  0  0
    1.2250   -2.0450   -0.0210 O   0  0  0  0  0  0  0  0  0  0  0  0
    8.0400    2.2540    2.8680 C   0  0  0  0  0  0  0  0  0  0  0  0
    7.5880    1.5950    1.5540 C   0  0  0  0  0  0  0  0  0  0  0  0
    6.8960    3.2610    2.6650 C   0  0  0  0  0  0  0  0  0  0  0  0
   -0.0170    1.3780    0.0100 C   0  0  0  0  0  0  0  0  0  0  0  0
    5.2460    5.2780   -2.2040 C   0  0  0  0  0  0  0  0  0  0  0  0
    0.0020   -0.0040    0.0020 C   0  0  0  0  0  0  0  0  0  0  0  0
    1.1670    2.0880    0.0020 C   0  0  0  0  0  0  0  0  0  0  0  0
    4.7230    1.9800    0.7950 C   0  0  0  0  0  0  0  0  0  0  0  0
    2.4040    0.0180   -0.0210 C   0  0  0  0  0  0  0  0  0  0  0  0
    4.0290    4.9330   -2.5810 N   0  0  0  0  0  0  0  0  0  0  0  0
    5.8800    4.6830   -1.2170 N   0  0  0  0  0  0  0  0  0  0  0  0
    7.0060    2.9620    1.1600 C   0  0  0  0  0  0  0  0  0  0  0  0
    5.7090    2.8750    0.4840 N   0  0  0  0  0  0  0  0  0  0  0  0
    1.2110   -0.6860   -0.0130 C   0  0  0  0  0  0  0  0  0  0  0  0
    3.3780    3.9450   -1.9740 C   0  0  0  0  0  0  0  0  0  0  0  0
    2.3860    1.4110   -0.0130 C   0  0  0  0  0  0  0  0  0  0  0  0
    3.6590    2.1710   -0.0220 C   0  0  0  0  0  0  0  0  0  0  0  0
    5.3110    3.6790   -0.5510 C   0  0  0  0  0  0  0  0  0  0  0  0
    4.0160    3.2760   -0.9210 C   0  0  0  0  0  0  0  0  0  0  0  0
  1 17  1  0  0  0  0
  2 16  1  0  0  0  0
  3  4  1  0  0  0  0
  3  5  1  0  0  0  0
  4 14  1  0  0  0  0
  5 14  1  0  0  0  0
  6  8  1  0  0  0  0
  6  9  2  0  0  0  0
  7 12  2  0  0  0  0
  7 13  1  0  0  0  0
  8 16  2  0  0  0  0
  9 18  1  0  0  0  0
 10 15  1  0  0  0  0
 10 19  2  0  0  0  0
 11 16  1  0  0  0  0
 11 18  2  0  0  0  0
 12 17  1  0  0  0  0
 13 20  2  0  0  0  0
 14 15  1  0  0  0  0
 15 20  1  0  0  0  0
 17 21  2  0  0  0  0
 18 19  1  0  0  0  0
 19 21  1  0  0  0  0
 20 21  1  0  0  0  0
M  END
>  <MOLID>
111
>  <REMARK>
Name = CHEMBL355330
x       y       z     vdW  Elec       q    Type
_______ _______ _______ _____ _____    ______ ____

>  <TORSDO>
F 2

>  <SMILES_CANONICAL>
Oc1cccc(c1)c1cn(c2c1c(N)ncn2)C1CCC1	111

>  <FINGERPRINT>
0000000000000000001000000000001001000000100000000000100000001000001000000000100000000001000000000000100000001101000001100001000000100000000010000001000000000000000001000000000011100000000010000000001000000000100000000000000000000000000000000000100000000000000000000000000000000001000000000000000000000000000010001100000000000000000000000000000000001100011000000000000110010000000000000000000000000000000010000000001000000000100000000000000000010000000000000000001000000000100000001001000000001100000000000000110000000000000000100000000011000000100000101000000000000000000010000000010001100000000000000000000001000000001000100001001000000001110000000000000000000000000000000001100000000010100000000111000000110001100000000000000001000000000000000101000000000000000111000000000000000100000000000000000110000000000010000000000000000000000010000000000010000010000000000001000000000000000000000100000000000000000000010100000000001000000000000100011000000000000000001100000000000000000000100000000000000000000000000000010011100000

>  <MACCS166>
000000000010000000001000010000000000010000001000010000000000010010000000001111010011100000000001011000001000001010000111110010100010101010110110111100110001111010111000

>  <OB_MW>
280.132

>  <OB_logP>
3.6923

>  <OB_PSA>
76.96

>  <OB_MR>
82.9604

>  <OB_ATOMIC_CHARGES>
-0.1070429886 -0.2865702181 0.0038564291 0.0226653458 0.0226653458 0.0032821268 0.201482989 0.0420280644 0.0002548531 0.0770571014 0.0420770538 -0.205599116 -0.2064565148 0.086885222 -0.3132633689 0.1957458551 0.174288133 0.0048042974 0.0230676322 0.1483379645 0.070433793

>  <MCT_HBD>
2

>  <MCT_HBA>
5

>  <ENSEMBLE_TOTAL>
3

>  <ENSEMBLE_RMSD>
0.000 1.320 2.129

>  <ENSEMBLE_COORDS>
-1.9991 1.3792 -2.5679 -2.8761 -4.2518 -0.2169 3.9389 0.0472 2.6721 3.4869 -0.6118 1.3581 2.7949 1.0542 2.4691 -4.1181 -0.8288 -0.1859 1.1449 3.0712 -2.3999 -4.0991 -2.2108 -0.1939 -2.9341 -0.1188 -0.1939 0.6219 -0.2268 0.5991 -1.6971 -2.1888 -0.2169 -0.0721 2.7262 -2.7769 1.7789 2.4762 -1.4129 2.9049 0.7552 0.9641 1.6079 0.6682 0.2881 -2.8901 -2.8928 -0.2089 -0.7231 1.7382 -2.1699 -1.7151 -0.7958 -0.2089 -0.4421 -0.0358 -0.2179 1.2099 1.4722 -0.7469 -0.0851 1.0692 -1.1169 -2.4363 1.8573 -3.3092 -2.4696 0.6458 -2.1097 -3.6827 -4.7287 -0.2115 4.9202 0.4729 2.6452 4.0471 -0.5118 3.5780 2.7622 -1.3905 1.4738 4.1693 -1.1403 0.7257 3.0304 2.0611 2.7441 1.8676 0.9721 2.9967 -5.0195 -0.3264 -0.1739 1.6186 3.8395 -2.9002 -4.9866 -2.7374 -0.1887 -2.9512 0.9130 -0.1888 0.6794 -0.9396 1.3432 -0.7977 -2.6947 -0.2288 3.4097 1.4140 0.2888
-1.7751 1.3350 -2.8198 -2.6868 -4.3348 -0.4490 4.2016 -0.1074 2.0590 2.7314 -0.2691 2.4925 3.6730 0.5476 0.7690 -4.2812 -1.0566 -0.3072 1.2300 3.1358 -1.9045 -4.1247 -2.4391 -0.3942 -3.1622 -0.2266 -0.1996 0.1574 -0.0309 0.9981 -1.7173 -2.1663 -0.2976 0.1278 2.7736 -2.5931 1.7232 2.5997 -0.7768 2.3959 0.9352 1.5703 1.2020 0.8204 0.7727 -2.8436 -2.9805 -0.3780 -0.6294 1.7437 -2.1203 -1.8751 -0.7773 -0.1986 -0.7083 0.0750 -0.0768 0.9508 1.5921 -0.3333 -0.2228 1.1232 -0.9215 -2.5446 1.9833 -2.6695 -1.5796 1.2493 -3.8145 -2.5009 -4.6353 0.4589 4.7602 -1.0374 1.9242 4.7815 0.5702 2.6950 2.5440 -0.1094 3.5576 2.3219 -1.2431 2.2012 3.5090 -0.1715 -0.0436 4.2711 1.3798 0.3870 -5.2766 -0.6224 -0.3189 1.7898 3.9683 -2.3155 -4.9972 -3.0805 -0.4738 -3.3088 0.8485 -0.1260 0.1240 -0.6803 1.8632 -0.7273 -2.6163 -0.2976 2.4667 1.9043 2.0812
-1.4613 0.8225 -2.8050 -5.4571 -0.9917 -0.5601 4.3533 0.8752 1.3194 3.4105 -0.3268 1.1975 3.2614 1.6639 2.0602 -2.6866 -3.3495 -0.3119 1.3873 2.7509 -1.6964 -3.9793 -2.8533 -0.4578 -1.6183 -2.4712 -0.1191 0.0603 -0.2447 1.2884 -3.1418 -0.5899 -0.1727 0.3584 2.3316 -2.4582 1.7810 2.2845 -0.5031 2.3089 0.4664 1.9340 1.1257 0.5993 1.1139 -4.1924 -1.4789 -0.3955 -0.4319 1.3239 -1.9933 -1.8409 -1.0870 -0.0479 -0.7188 -0.1891 0.1498 0.9698 1.3136 -0.0502 -0.1529 0.8056 -0.7098 -1.5330 1.3617 -3.6651 -2.3571 0.8162 -2.3262 -5.5719 -0.8574 -1.5180 4.6511 1.3065 0.3581 5.2523 0.6800 1.9124 3.7450 -1.2203 1.7346 3.1961 -0.6148 0.1615 3.5307 1.8933 3.0986 2.9805 2.6090 1.5924 -2.5062 -4.4197 -0.3518 1.9750 3.5656 -2.1040 -4.8069 -3.5374 -0.6212 -0.6153 -2.8797 -0.0157 -0.0093 -0.8795 2.1632 -3.3393 0.4780 -0.1213 2.0730 0.0431 2.9204

$$$$
