111
 OpenBabel09171821283D

 59 62  0  0  0  0  0  0  0  0999 V2000
   -2.3364   -4.4910   12.3870 H   0  0  0  0  0
   -0.3772    1.0427    2.3488 H   0  0  0  0  0
   -0.1243    3.7636    7.3408 H   0  0  0  0  0
   -1.9768   -1.0428    6.1563 H   0  0  0  0  0
   -1.6131   -2.1223   -2.2937 H   0  0  0  0  0
   -0.5866   -3.3538   -0.4893 H   0  0  0  0  0
   -2.2859    0.1723   -1.9656 H   0  0  0  0  0
   -1.1716    0.6289    8.8147 H   0  0  0  0  0
   -0.2922    5.5038   11.5748 H   0  0  0  0  0
    0.1982    4.3912   12.8296 H   0  0  0  0  0
   -1.4887    4.8048   12.6391 H   0  0  0  0  0
   -2.5059    2.0677   -0.6695 H   0  0  0  0  0
   -1.2152    2.2838    0.4882 H   0  0  0  0  0
   -2.7884    1.7446    1.0243 H   0  0  0  0  0
   -3.7981   -4.2989   10.5963 H   0  0  0  0  0
   -5.0456   -4.9641   11.6225 H   0  0  0  0  0
   -2.1884    0.8437   13.1767 H   0  0  0  0  0
   -1.3218   -0.6601   13.3072 H   0  0  0  0  0
   -1.3916   -0.9155    9.4884 H   0  0  0  0  0
   -0.7877   -1.8390   10.8369 H   0  0  0  0  0
   -4.6983   -3.0625   13.1958 H   0  0  0  0  0
   -5.2409   -2.5427   11.6181 H   0  0  0  0  0
   -3.6692   -1.0904   13.7695 H   0  0  0  0  0
   -4.1450   -0.2905   12.2922 H   0  0  0  0  0
   -2.8627   -2.8467   10.0949 H   0  0  0  0  0
   -3.6817   -1.3059   10.1706 H   0  0  0  0  0
    0.0660   -2.6530    2.1770 Cl  0  0  0  0  0
   -1.7690   -1.5260    3.3940 O   0  0  0  0  0
   -3.1500   -5.0190   12.4040 O   0  0  0  0  0
   -0.5110    1.9100    5.0740 S   0  0  0  0  0
   -1.3260    0.7270    6.9600 N   0  0  0  0  0
   -0.5420    3.6720    9.8810 N   0  0  0  0  0
   -1.0870    2.2950   11.6450 N   0  0  0  0  0
   -0.8440    0.1770    2.3050 N   0  0  0  0  0
   -0.4820    2.9000    7.6500 N   0  0  0  0  0
   -1.6140    0.0140   11.3460 N   0  0  0  0  0
   -3.2330   -2.1490   12.0250 N   0  0  0  0  0
   -1.5470   -0.1200    5.9870 C   0  0  0  0  0
   -1.4620   -1.6670   -1.3800 C   0  0  0  0  0
   -0.8740   -2.3730   -0.3460 C   0  0  0  0  0
   -1.8480   -0.3520   -1.1920 C   0  0  0  0  0
   -1.0530    1.4190    9.4680 C   0  0  0  0  0
   -0.6710   -1.7660    0.8790 C   0  0  0  0  0
   -1.2820   -0.4110    3.4370 C   0  0  0  0  0
   -0.7760    1.9070    6.7360 C   0  0  0  0  0
   -0.7440    3.4740   11.1680 C   0  0  0  0  0
   -1.1720    0.2900    4.7150 C   0  0  0  0  0
   -0.6910    2.6800    9.0050 C   0  0  0  0  0
   -1.2510    1.2510   10.8350 C   0  0  0  0  0
   -1.0530   -0.4430    1.0690 C   0  0  0  0  0
   -1.6480    0.2600    0.0300 C   0  0  0  0  0
   -0.5690    4.6270   12.1220 C   0  0  0  0  0
   -2.0700    1.6930    0.2330 C   0  0  0  0  0
   -4.1480   -4.3820   11.6040 C   0  0  0  0  0
   -2.0560   -0.1250   12.7420 C   0  0  0  0  0
   -1.5730   -1.1920   10.5060 C   0  0  0  0  0
   -4.4330   -2.9860   12.1620 C   0  0  0  0  0
   -3.3870   -0.8850   12.7580 C   0  0  0  0  0
   -2.9170   -1.9110   10.6110 C   0  0  0  0  0
  1 29  1  0  0  0
  2 34  1  0  0  0
  3 35  1  0  0  0
  4 38  1  0  0  0
  5 39  1  0  0  0
  6 40  1  0  0  0
  7 41  1  0  0  0
  8 42  1  0  0  0
  9 52  1  0  0  0
 10 52  1  0  0  0
 11 52  1  0  0  0
 12 53  1  0  0  0
 13 53  1  0  0  0
 14 53  1  0  0  0
 15 54  1  0  0  0
 16 54  1  0  0  0
 17 55  1  0  0  0
 18 55  1  0  0  0
 19 56  1  0  0  0
 20 56  1  0  0  0
 21 57  1  0  0  0
 22 57  1  0  0  0
 23 58  1  0  0  0
 24 58  1  0  0  0
 25 59  1  0  0  0
 26 59  1  0  0  0
 27 43  1  0  0  0
 28 44  2  0  0  0
 29 54  1  0  0  0
 30 45  1  0  0  0
 30 47  1  0  0  0
 31 38  1  0  0  0
 31 45  2  0  0  0
 32 46  2  0  0  0
 32 48  1  0  0  0
 33 46  1  0  0  0
 33 49  2  0  0  0
 34 44  1  0  0  0
 34 50  1  0  0  0
 35 45  1  0  0  0
 35 48  1  0  0  0
 36 49  1  0  0  0
 36 55  1  0  0  0
 36 56  1  0  0  0
 37 57  1  0  0  0
 37 58  1  0  0  0
 37 59  1  0  0  0
 38 47  2  0  0  0
 39 40  1  0  0  0
 39 41  2  0  0  0
 40 43  2  0  0  0
 41 51  1  0  0  0
 42 48  2  0  0  0
 42 49  1  0  0  0
 43 50  1  0  0  0
 44 47  1  0  0  0
 46 52  1  0  0  0
 50 51  2  0  0  0
 51 53  1  0  0  0
 54 57  1  0  0  0
 55 58  1  0  0  0
 56 59  1  0  0  0
M  END
<MOLID> (111)
111
>  <REMARK>
  Name = CHEMBL1421
                            x       y       z     vdW  Elec       q    Type
                         _______ _______ _______ _____ _____    ______ ____

>  <TORSDO>
F 7

>  <SMILES_CANONICAL> (111)
OCCN1CCN(CC1)c1cc(nc(n1)C)Nc1ncc(s1)C(=O)Nc1c(C)cccc1Cl	111

>  <FINGERPRINT> (111)
0001000000000011110000000000001001000010010000000000000000000000000000000000000000000001101000100001110000101001000011100001100000000001000001000000010010100000000000000000000001100000010000000000010000000000110110011000000000011000000001101001100000001000000100000000000001000011000000000000000000000000000010100111000000000000001010000010101000000100010100000000000011011000000000000000011000000000100000000000011000000000000100000010000000100001100000000001001000101001010000000000000000011100000000000000110000010001000011010001000000000000000100100000000001000000100000000000100001100000000000000001000010110100101000001001001000000000110100000001000000010000000000000010101000001100001111111000000000100010100000010110100001100000001100100101010100000000000110100000001000001100001000000000000010001100000100000000010000000010000000000000000000000100000100001011000000000001000101001000010000001010001101001000000000011100000000000100111000100000000000011110000000000000000100000000000010000100001000110000001011000000

>  <MACCS166> (111)
000000000000000000001000000000000011010000001010010000000000010010000000001111111110111101110011111100110111111100001111110011011011111111111101111111101111111110111000

>  <OB_MW> (111)
487.156

>  <OB_logP> (111)
3.4624

>  <OB_PSA> (111)
134.75

>  <OB_MR> (111)
138.633

>  <OB_ATOMIC_CHARGES> (111)
0.2094506672 0.1551987784 0.1554739874 0.0843244315 0.0618109752 0.0632661303 0.062078491 0.0686428553 0.0307984351 0.0307984351 0.0307984351 0.0278115582 0.0278115582 0.0278115582 0.0569737805 0.0569737805 0.0476641506 0.0476641506 0.0476641506 0.0476641506 0.0448936185 0.0448936185 0.044189859 0.044189859 0.044189859 0.044189859 -0.0816134446 -0.2692287429 -0.3937471619 -0.0474745916 -0.2322495763 -0.217357368 -0.2175285562 -0.2795799542 -0.2785403182 -0.3126075138 -0.2971996693 0.049050767 -0.0600170959 -0.0415673389 -0.0569940338 0.0184949724 0.0623906713 0.2564894223 0.1640730984 0.1301434084 0.0953481525 0.1296314942 0.1266369893 0.0550787346 -0.0278106882 -0.0044792111 -0.0379090076 0.056921326 0.0263060274 0.0263060274 0.022202823 0.0148016129 0.0148016129

>  <MCT_HBD> (111)
3

>  <MCT_HBA> (111)
9

<ENSEMBLE_TOTAL> (111)
50

<ENSEMBLE_RMSD> (111)
2.266 2.373 2.572 2.578 2.626 2.698 2.722 2.778 2.808 2.919 2.935 2.962 2.966 2.982 2.998 3.053 3.063 3.144 3.177 3.182 3.213 3.218 3.248 3.259 3.288 3.290 3.291 3.298 3.305 3.306 3.315 3.322 3.336 3.361 3.371 3.380 3.391 3.407 3.413 3.479 3.506 3.540 3.548 3.576 3.608 3.609 3.625 3.635 3.710 3.845

<ENSEMBLE_COORDS> (111)
-4.4568 -3.1145 6.1363 1.6361 1.7186 -5.3138 1.9095 3.9387 -0.1513 1.8938 -1.0702 -1.5265 -0.1109 -1.4344 -9.8698 2.1549 -0.5217 -9.5423 -1.7864 -1.3003 -8.0726 -0.0138 1.1281 1.1190 3.0706 3.7367 5.1239 1.5283 4.5685 5.4154 2.6540 5.1925 4.1927 -1.6231 0.7894 -5.2125 -1.2189 -0.8895 -4.7664 -2.4930 -0.5625 -5.9496 -3.3871 -4.8610 4.8851 -3.8900 -3.3755 4.0613 -1.7510 0.3440 2.0491 -2.3673 0.4265 3.6984 1.0345 0.0243 5.2539 -0.6771 0.2616 5.6527 -1.5435 -3.9888 3.4563 -1.0948 -4.0326 5.1517 -2.6847 -1.8147 2.6537 -0.9466 -1.9576 2.3553 -0.0506 -2.0980 5.9389 0.6112 -2.1809 4.2988 3.3691 0.7670 -7.3241 1.8048 -1.1931 -4.3260 -3.4904 -3.2003 6.0736 1.4097 2.3142 -2.5856 1.8317 0.8100 -0.5507 1.7925 3.6972 2.3115 0.8850 2.3610 4.1042 1.1529 0.8260 -5.2372 1.3552 3.0995 0.0056 -0.2583 0.3101 3.5858 -1.5042 -2.0799 4.3968 1.7759 -0.0024 -1.6588 0.1502 -0.9627 -8.9264 1.4297 -0.4452 -8.7357 -0.7962 -0.8820 -7.9051 0.4461 1.7912 1.8439 1.7650 0.1539 -7.5182 1.5354 0.0003 -4.1765 1.5629 2.0623 -0.8735 1.5942 3.4074 3.6217 1.5807 0.6319 -2.8676 1.2089 2.8739 1.4113 0.3249 1.5230 3.2048 0.8166 0.2356 -6.4856 -0.4782 -0.2819 -6.6782 2.2512 4.2821 4.6445 -1.5142 -0.2322 -5.5908 -3.2030 -3.7855 4.8102 -1.5866 -0.0178 3.0686 0.0109 -0.1993 4.9308 -1.7476 -3.5248 4.4304 -1.6976 -1.5423 3.0428 -0.1746 -1.7240 4.9155
-2.4213 -5.0715 4.6923 -0.5934 0.9380 -5.6085 -1.5388 2.2186 -0.3062 2.9239 0.5201 -2.5162 1.3515 -1.0213 -10.7925 1.2530 -2.6915 -8.9894 0.9669 1.3583 -10.3126 -1.6071 0.4437 1.8830 2.6600 4.1086 3.1075 3.4964 3.0048 1.9848 3.3760 2.5941 3.7024 0.5391 3.1366 -8.8406 1.1445 2.9098 -7.1959 -0.5926 2.7109 -7.5499 -1.8779 -4.9875 6.9475 -0.7430 -4.1983 5.8487 -2.7179 0.2971 3.7183 -2.4194 0.8658 5.3600 1.1770 0.0589 5.4685 -0.1953 0.7299 6.3642 -1.4305 -2.8845 7.9567 -3.0522 -2.7938 7.3352 -3.5095 -1.3746 5.3386 -2.1988 -2.0192 4.3339 0.3230 -1.5721 7.0873 0.1703 -2.1683 5.4262 0.7136 -2.4691 -6.2311 2.5047 0.2768 -5.1746 -2.7005 -4.3018 5.2163 -0.5356 1.3268 -2.8860 1.3920 1.1150 -1.1953 1.0223 2.4716 1.3605 0.9941 1.6904 3.6265 0.3100 0.5177 -5.8075 -0.6724 1.7015 -0.1910 -0.6768 0.1639 4.3832 -1.6564 -1.5877 6.3442 1.8833 0.7967 -2.4306 1.1318 -0.7042 -9.7768 1.0710 -1.6454 -8.7551 0.9136 0.6440 -9.4938 -0.7202 1.0231 2.1209 0.7821 -1.2413 -7.4484 1.3393 0.5428 -4.8661 0.1083 1.4015 -1.2681 1.5424 2.3738 2.6012 0.9953 0.8490 -3.4855 -0.1128 1.7736 1.1167 -0.1504 1.0019 3.3973 0.5703 0.1173 -7.1475 0.6359 1.0747 -8.1823 2.8463 3.0599 2.8637 0.4198 2.5411 -7.9280 -1.7546 -4.1420 6.2621 -2.1233 0.1114 4.6185 0.0946 -0.0247 5.6184 -2.0031 -2.8383 7.0204 -2.4356 -1.3035 5.1325 -0.2127 -1.4290 6.1419
-3.5781 -4.6942 4.9928 -0.5399 0.4494 -5.5421 -1.6182 1.8212 -0.1736 2.8485 2.2379 -2.8123 1.9331 -0.9368 -10.6812 2.8688 -2.0719 -8.7076 0.3076 0.8888 -10.4181 -1.6167 0.3599 2.0080 3.1477 3.2650 3.4449 3.4448 3.0407 1.7081 3.8497 1.7420 2.8443 -0.2615 2.7703 -7.5541 -1.6054 1.5995 -7.6202 -0.9929 2.3398 -9.1038 -2.4685 -4.9072 6.9851 -1.4701 -4.2887 5.6641 -2.5815 0.5547 4.0242 -1.9936 0.9847 5.6302 1.3796 -0.4653 5.2622 0.2741 0.3950 6.3431 -1.3354 -3.0617 7.9379 -2.9761 -2.5367 7.7075 -3.4720 -1.0127 5.7091 -2.4423 -1.8429 4.5280 0.4458 -1.9859 6.9417 -0.0211 -2.4789 5.3066 2.4289 -1.7323 -5.9431 2.3637 1.7607 -5.4536 -3.4915 -3.8980 5.5430 -0.5431 1.1068 -2.8783 1.3070 2.0700 -1.3792 1.1610 2.1009 1.2798 1.2190 1.3562 3.5482 0.4362 0.5570 -5.8034 -0.6653 1.4639 -0.1822 -0.5438 0.0158 4.4299 -1.5803 -1.6088 6.4593 1.8220 1.9454 -2.6395 1.6212 -0.6317 -9.6859 2.1442 -1.2738 -8.5683 0.6998 0.4036 -9.5267 -0.6564 0.8437 2.1615 1.7396 -0.8884 -7.2875 1.3116 1.2949 -5.0078 0.0760 1.5996 -1.3257 1.7529 1.9771 2.4809 0.9675 1.4563 -3.6048 -0.0421 1.5066 1.1033 -0.0006 0.7835 3.3989 0.8163 0.1586 -7.1133 0.2881 0.8158 -8.2454 3.1304 2.5390 2.6283 -0.6980 1.9448 -8.1246 -2.3136 -4.0512 6.3201 -1.9335 0.2222 4.8424 0.3268 -0.3633 5.5484 -2.0640 -2.7990 7.1586 -2.4383 -1.1320 5.3655 -0.1681 -1.7102 6.0764
-4.5901 -2.2430 6.4244 0.7035 1.8482 -5.3394 3.0975 -0.5973 0.3703 -0.0870 1.5922 -3.2333 0.8963 0.6052 -11.0559 3.0358 1.1458 -9.9712 -1.1454 0.3195 -9.7198 1.2222 -1.2223 2.3103 1.5292 4.4912 1.7254 0.4469 4.4245 3.1322 -0.2113 4.1967 1.4976 -2.2975 0.2552 -7.6865 -1.6969 1.3925 -6.4761 -1.3462 -0.3496 -6.3256 -3.5843 -4.3619 6.6569 -2.6495 -3.9442 5.2219 -1.6013 1.2665 4.8197 -0.5030 0.8911 6.1578 1.4327 -1.7087 4.4142 1.2087 -0.8344 5.9285 -1.5438 -3.4958 7.4970 -2.7522 -2.2889 7.8226 -2.7136 -0.1567 6.5233 -2.6363 -0.9355 4.9329 0.2279 -3.1312 5.9888 -0.8026 -2.7465 4.5979 3.7331 1.5629 -7.2698 2.2267 -0.9827 -5.4732 -4.2277 -2.7091 5.6524 2.7139 -0.5033 -2.4626 0.8564 0.9504 -1.4579 1.5471 1.9396 1.2235 0.3695 1.8826 3.3151 1.1449 1.0403 -5.7691 2.2232 -0.1198 0.1679 -0.0984 -0.2025 4.3915 -1.3236 -1.7473 6.3916 0.7174 0.9978 -2.8252 0.9387 0.7159 -9.9759 2.1465 1.0203 -9.3582 -0.2138 0.5507 -9.2078 1.1426 -0.1387 2.3214 2.2064 1.1498 -7.9685 1.7081 0.0239 -4.9879 1.8639 0.1721 -1.1139 0.8827 2.5224 2.2422 1.6178 0.2509 -3.5530 1.6614 0.5928 1.2581 0.5010 0.5359 3.3677 1.0595 0.9458 -7.1806 -0.1744 0.6652 -7.8058 0.6487 3.9967 2.1453 -1.4495 0.4810 -7.0289 -3.1531 -3.5238 6.0973 -1.0423 0.4572 5.3032 0.6790 -1.2474 5.0594 -2.1893 -2.7556 7.0058 -2.0350 -0.6115 5.7916 -0.3209 -2.3251 5.4904
-4.4429 -1.5590 7.9525 -0.0220 -0.3660 -5.7525 -1.7463 0.5512 -0.6329 2.8109 1.7198 -2.7874 2.2420 0.1347 -11.0973 2.5815 -1.7828 -9.5874 1.0762 2.1555 -10.3135 -1.1417 -1.0234 1.7282 0.6121 4.3293 2.5727 1.9755 3.7960 1.5632 2.0155 3.5274 3.3158 -0.1558 3.3388 -8.6856 0.6400 3.1796 -7.1150 -0.9361 2.4005 -7.4057 -3.5333 -3.7041 7.9731 -3.4694 -2.8332 6.4392 -0.3602 1.0420 5.6428 0.9600 -0.1303 5.8139 -0.2209 -2.4120 3.1557 1.0088 -2.1570 4.3959 -1.2973 -4.0441 7.4193 -1.1984 -2.6921 8.5087 -0.6866 -0.4353 7.6067 -2.0095 -0.5097 6.4308 -0.7111 -3.8122 5.1041 -1.9960 -2.6309 4.8167 1.8764 -2.1939 -6.8687 2.3584 1.7099 -5.5278 -3.4951 -1.6744 8.1376 -0.4689 0.3416 -3.1798 1.2921 1.0805 -1.4608 0.2342 1.9583 1.0042 0.5707 1.4162 3.3113 0.5307 0.4184 -6.0871 -0.7609 0.3368 -0.4885 -0.3945 -0.5746 4.2471 -0.7778 -2.2327 6.5078 1.8218 1.2895 -2.7077 1.8735 0.1802 -10.0759 2.0647 -0.9004 -9.2176 1.2105 1.3225 -9.6269 -0.5939 -0.0991 1.8853 1.6034 -0.8355 -7.9008 1.3731 1.0603 -5.1747 0.0645 0.6053 -1.5495 0.6900 2.2277 2.2401 1.0246 0.9292 -3.7729 -0.3703 0.7639 0.8176 -0.0968 0.2463 3.1467 0.9479 0.3169 -7.4406 0.7328 1.4031 -8.3116 1.3649 3.5470 2.4369 0.0302 2.6514 -7.8548 -3.0764 -2.8513 7.4597 -0.1079 -0.0235 5.5782 -0.0502 -1.9975 4.1548 -1.5506 -2.9797 7.5096 -0.9611 -0.7801 6.6028 -0.9550 -2.7447 5.1439
-1.4974 -5.7606 7.4957 1.6020 1.5858 -5.5202 -2.3275 1.4772 -0.1417 1.8141 0.7133 -3.3200 1.7167 -0.7966 -10.8671 1.4981 -2.3907 -9.0076 1.6033 1.6235 -10.4585 -2.0273 0.1861 2.1414 2.9241 2.8511 0.9754 3.4947 1.4605 1.9161 3.0070 2.9581 2.7466 1.3421 3.4768 -9.0598 2.0119 3.2634 -7.4396 0.2475 3.2170 -7.6969 -1.0199 -4.0641 6.1610 -2.7597 -4.0885 6.5038 -2.7162 0.4581 4.2473 -1.9230 1.0688 5.6993 1.4016 -0.3629 5.0290 0.4352 0.6137 6.1467 -0.9695 -2.5701 8.4233 -2.6605 -2.3246 8.0789 -3.3263 -0.9255 6.1976 -2.4428 -1.8875 5.0015 0.7455 -1.7002 6.9773 0.0774 -2.3512 5.4723 1.1174 -2.0238 -6.2368 -1.4023 0.6390 -5.9332 -1.5555 -4.9008 7.9452 -1.7175 1.1765 -2.9181 0.5084 0.9198 -1.6748 0.6246 1.8412 0.9046 0.9983 1.2542 3.1897 0.8809 1.0073 -5.9430 -1.3778 1.1239 -0.2301 -0.6240 0.0017 4.4157 -1.3365 -1.4054 6.7435 0.7854 0.8522 -3.0180 1.5665 -0.4274 -9.8563 1.4414 -1.3247 -8.8014 1.4967 0.9445 -9.6156 -1.0571 0.6745 2.1290 1.2354 -0.8511 -7.5025 -0.3597 0.8584 -5.3152 -0.7846 1.0745 -1.4614 1.3823 1.7851 2.0129 -0.2980 0.9485 -3.8638 -0.5942 1.2558 0.9505 -0.2355 0.6936 3.2634 1.1267 0.5294 -7.2540 1.2803 1.4428 -8.3184 2.7845 2.2945 1.9074 1.2170 2.9326 -8.1162 -1.7713 -3.9138 6.9400 -1.9523 0.2250 4.9959 0.3967 -0.2329 5.4460 -1.6959 -2.5366 7.6009 -2.3456 -1.0717 5.7303 0.0140 -1.5175 6.1820
-2.6178 -5.1762 5.6640 -0.8197 0.7369 -5.7915 -1.9595 1.1111 -0.4151 2.7491 0.8477 -2.7635 1.3733 -0.4611 -11.1070 0.1307 -2.1276 -9.7903 2.0377 1.6820 -10.1039 -1.6924 -0.1539 1.9623 2.2959 4.0025 1.6581 3.2482 2.5884 2.1622 2.4514 3.6049 3.3815 2.3181 2.4412 -6.7926 0.7220 3.1274 -7.1926 2.0558 3.2229 -8.3508 -1.4328 -4.8113 7.5764 -0.6889 -4.1105 6.1328 -2.7740 0.0336 3.9366 -2.3642 0.8181 5.4645 1.2592 0.1450 5.3078 -0.0433 0.8817 6.2572 -0.9123 -2.6591 8.3210 -2.6139 -2.5695 7.9751 -3.3441 -1.4477 5.8244 -2.0957 -2.1661 4.7888 0.6376 -1.2997 7.2021 0.3489 -2.1024 5.6499 -0.7759 -2.1225 -7.1049 2.3154 0.2009 -5.3640 -2.7369 -4.3123 6.0944 -0.8129 0.7173 -3.0378 1.1502 0.9327 -1.3907 0.5838 2.1553 1.0656 0.7174 1.7100 3.4138 0.1533 0.5814 -6.0400 -0.9671 0.9134 -0.3200 -0.6873 0.0571 4.4200 -1.4032 -1.4762 6.6683 1.6743 0.8331 -2.6488 1.1129 -0.2477 -10.0739 0.4106 -1.1862 -9.3228 1.4840 0.9671 -9.4996 -0.9007 0.5819 2.0731 0.0826 -0.9119 -7.9900 1.1455 0.4582 -5.0682 -0.1665 0.8798 -1.4270 1.1330 2.3184 2.2850 0.7728 0.6771 -3.6809 -0.4288 1.2621 0.9538 -0.3102 0.8305 3.3174 0.4528 0.3104 -7.4024 1.1569 1.2654 -8.1665 2.3523 3.1811 2.3780 1.5860 2.5880 -7.5926 -1.5428 -4.0342 6.8121 -2.1003 -0.0142 4.7984 0.2038 0.0468 5.5852 -1.6335 -2.6666 7.4927 -2.2984 -1.3628 5.5094 0.0072 -1.2916 6.3055
-4.9163 -2.5713 6.7838 -0.0244 -0.1235 -5.8227 0.5167 -1.4017 -0.2901 2.6091 2.4277 -2.9314 1.7816 0.8696 -11.2791 3.2590 -0.6015 -9.9655 -0.1275 1.9992 -10.2173 -0.2861 -1.5057 1.9491 0.7032 4.0394 3.1153 0.5067 4.1108 1.3553 2.0974 3.7282 2.0507 -1.4792 2.4779 -8.3715 -0.5714 2.6023 -6.8603 -1.6119 1.1870 -7.1716 -3.3998 -4.0331 7.7738 -3.0193 -3.4938 6.1366 -1.4322 1.1733 5.1078 0.0065 0.7599 6.0608 0.8884 -2.2067 4.0115 1.3624 -1.2497 5.4234 -1.1787 -3.4088 8.0800 -2.0267 -1.9937 8.6298 -2.0249 0.0505 7.2393 -2.6052 -0.8081 5.8020 0.2032 -3.3320 6.1073 -1.1770 -2.9373 5.0736 3.2432 -1.3373 -7.2301 2.2464 2.0198 -5.6406 -4.1560 -2.2100 7.2708 0.4106 -0.3893 -3.1267 1.6732 1.1626 -1.5188 0.6122 1.5670 0.9148 0.4755 1.4956 3.2997 0.9019 0.1995 -6.0931 0.2536 -0.4247 -0.4203 -0.3207 -0.4914 4.3853 -0.9997 -1.7457 6.8202 1.9592 1.5738 -2.7944 1.5877 0.7160 -10.2214 2.4197 -0.1149 -9.4753 0.5069 1.3549 -9.6128 0.0135 -0.4624 2.0019 2.1747 -0.3045 -8.1143 1.5516 1.0867 -5.2317 0.8129 0.1624 -1.5294 0.6908 2.1314 2.1326 1.3805 0.8449 -3.8109 0.3045 0.2521 0.8432 0.1020 0.1935 3.2360 1.0978 0.3479 -7.4916 0.2458 1.1812 -8.2447 1.0194 3.5888 2.1704 -0.9194 1.9022 -7.6262 -3.1065 -3.1641 7.1755 -0.8268 0.3385 5.4815 0.5010 -1.6107 4.8459 -1.8025 -2.5775 7.7274 -1.7077 -0.5411 6.3722 -0.3989 -2.5046 5.7144
-1.5064 -2.7573 9.8036 1.4758 -0.7092 -5.7696 1.9581 -1.2158 -0.2131 1.4113 3.1191 -3.0635 0.9604 1.1399 -11.3122 3.0701 0.2419 -10.4164 -0.9306 1.6207 -9.8148 0.4052 -1.5620 1.8244 0.0163 4.0735 1.7163 1.7911 4.0208 1.7697 0.8582 4.0131 3.2812 -1.9506 1.6243 -7.6990 -0.8207 2.0979 -6.4276 -1.3730 0.4074 -6.5510 -3.4914 -3.2374 8.7784 -2.9273 -1.5843 8.4825 -1.6205 1.0822 4.8566 -0.4819 0.3852 6.0198 0.7497 -2.3238 3.8465 0.8536 -1.5871 5.4439 -3.6840 -2.8382 6.3533 -2.4053 -3.9999 6.6644 -2.7930 -0.2799 6.5525 -3.0347 -0.9378 4.9293 -0.5263 -3.6641 5.4327 -1.6316 -2.9607 4.2382 3.8756 -0.4159 -7.7783 1.9451 2.4474 -5.6775 -1.4596 -2.9745 8.8579 1.6456 -0.4511 -3.0470 1.4435 1.6352 -1.5663 1.2440 1.5902 1.0480 0.3152 1.5022 3.2478 1.4121 0.2503 -6.0979 1.3571 -0.4031 -0.3345 -0.4656 -0.5768 4.1361 -1.7076 -2.0603 6.1583 1.4697 2.0582 -2.8639 1.0560 0.9479 -10.2469 2.2466 0.4393 -9.7337 -0.0137 1.2158 -9.3931 0.5485 -0.4925 1.9492 2.3691 0.1975 -8.3610 1.6835 1.3208 -5.2490 1.4755 0.3191 -1.4934 0.8304 2.1617 2.1933 1.5857 1.0754 -3.8219 1.0806 0.2552 0.9063 0.1741 0.1584 3.1345 1.2941 0.4626 -7.4953 0.0885 0.9760 -8.0140 0.8777 3.6553 2.2485 -1.0807 1.2934 -7.1233 -2.7188 -2.6412 8.2848 -1.1754 0.1421 5.2013 0.1674 -1.8063 4.6145 -2.6837 -2.9451 6.7909 -2.2874 -0.7810 5.7190 -0.9657 -2.7247 5.0805
-3.6646 -4.5584 8.1357 1.8381 0.0087 -5.6801 2.3213 0.1557 -0.1210 -0.8809 2.9269 -3.1860 -0.0169 0.2242 -11.2387 -1.6207 -0.6809 -9.6061 2.0747 1.2748 -10.4869 1.4842 -0.8114 2.0808 -2.6661 3.1433 2.2557 -1.5708 3.9416 1.1132 -1.3221 4.1465 2.8589 3.5950 1.8973 -8.8172 3.5633 0.9722 -7.3127 2.7551 2.5599 -7.4087 -2.5723 -3.7044 6.4185 -3.0371 -2.4076 7.5471 -0.1524 1.2082 5.7155 1.2362 0.1508 5.9868 0.2980 -2.2615 3.2864 1.5149 -1.9221 4.5342 -0.3417 -3.8610 7.6795 -0.8056 -2.4649 8.6200 -0.4894 -0.2658 7.6918 -1.7285 -0.5320 6.4579 -0.0766 -3.6707 5.2466 -1.4464 -2.5915 4.9213 -1.5754 -0.8151 -6.7858 -0.2494 2.4071 -5.7839 -2.7664 -4.2652 8.3661 1.5560 0.3180 -2.9665 0.1053 1.9383 -1.6059 -0.0234 1.9839 1.0003 -0.7305 1.4767 3.2186 1.0386 0.5209 -6.0421 1.3481 0.4240 -0.2447 0.0366 -0.4351 4.3568 -0.2840 -2.0793 6.6188 -0.1580 2.1663 -2.9261 0.2051 0.2829 -10.1766 -0.6970 -0.2313 -9.2509 1.3902 0.8762 -9.7409 0.8504 0.0696 2.1089 -0.4107 -0.1615 -7.8858 0.4154 1.5015 -5.2738 0.9637 0.9489 -1.4530 -0.7345 2.2377 2.1098 0.5373 1.3930 -3.8296 0.7366 0.8655 0.9719 0.0817 0.3877 3.2371 0.7798 0.4361 -7.4349 1.6938 0.9654 -8.3702 -1.6261 3.4376 2.0843 2.9736 1.6354 -7.9526 -2.3903 -3.2788 7.4092 0.1798 0.1635 5.6869 0.4500 -1.8324 4.2822 -0.9186 -2.9280 7.6317 -0.6616 -0.6615 6.6833 -0.4047 -2.6258 5.2649
-4.3752 -3.1085 8.8197 1.5828 1.6095 -5.5724 -2.0148 -0.4838 -0.5097 1.9794 1.2366 -3.3994 2.2223 0.6894 -11.2709 3.0983 -1.1201 -9.8461 0.9586 2.5570 -10.2886 -1.2393 -1.3906 1.9156 0.7644 3.9353 2.5920 0.9764 3.7809 0.8384 2.2357 3.1741 1.9318 0.0584 3.7080 -8.4621 0.9212 3.4853 -6.9383 -0.6246 2.6423 -7.2247 -3.3267 -2.3374 7.0038 -3.0362 -1.2896 8.4117 -0.2753 1.2212 5.4547 1.0570 0.0814 5.7202 -0.2284 -2.5379 3.4461 1.0467 -2.1239 4.5912 -1.1438 -3.6133 7.8736 -0.8598 -2.1751 8.8196 -0.5060 0.0153 7.6131 -1.8819 -0.2202 6.5239 -0.6557 -3.6625 5.5708 -1.9429 -2.5038 5.2071 2.9601 -1.5617 -7.0569 -0.3607 -0.8570 -6.1252 -3.4137 -3.2540 8.8306 -1.0661 -0.6399 -3.1670 0.7357 0.5902 -1.8182 -0.0149 1.4865 0.6918 0.4692 1.2992 3.0285 1.2908 0.7649 -6.0573 -1.0024 -0.3794 -0.4880 -0.3634 -0.5683 4.2918 -0.6239 -1.9124 6.7616 1.0803 0.6921 -3.1446 2.0344 0.7070 -10.2012 2.5263 -0.3146 -9.3932 1.3139 1.7608 -9.6384 -0.7166 -0.4385 1.9074 2.2880 -0.2902 -8.0188 0.3225 -0.0620 -5.4794 -0.3861 -0.0895 -1.6744 0.4944 1.9502 1.8463 0.2349 0.0672 -4.0356 -0.5803 0.2602 0.7137 -0.1628 0.0987 3.0738 1.5348 0.7502 -7.4499 1.0587 1.8012 -8.2589 1.1563 3.2899 1.8009 0.3093 2.9736 -7.6885 -2.8323 -2.2738 7.9773 -0.0213 0.1568 5.5216 -0.0214 -1.9924 4.3723 -1.3267 -2.5311 7.8925 -0.8222 -0.4596 6.6769 -0.8853 -2.5942 5.4878
-0.0660 -4.8670 7.0168 -0.3611 1.3540 -5.9640 -1.8702 1.4435 -0.6240 2.8679 0.4589 -2.7155 1.5726 -0.6348 -11.1398 1.0393 -2.3657 -9.4771 1.5856 1.7403 -10.5107 -2.0769 0.1373 1.6774 3.2622 2.2223 1.7144 3.0583 2.0410 3.4651 2.4625 3.5061 2.6547 1.3752 3.4718 -8.9513 1.8076 3.0466 -7.2919 0.0939 3.1963 -7.7650 -0.9568 -3.7886 8.8265 0.0764 -2.7756 7.8119 -2.0877 -1.6186 3.1128 -3.1587 -0.6119 4.1063 -0.3881 1.3821 5.6172 -2.1396 1.1539 5.6148 -2.1914 -1.7846 8.5656 -2.9898 -2.9777 7.5839 -2.8372 -2.8341 5.1252 -1.0753 -2.6461 5.0568 -1.0973 0.1015 7.5963 -0.0119 -0.8503 6.5706 0.3399 -2.2183 -6.7507 2.5356 0.1668 -5.3922 -0.8717 -4.3420 6.8717 -0.6378 0.9590 -3.1904 1.2231 0.7580 -1.4282 0.7456 1.8685 1.0742 0.6715 1.1571 3.3513 0.4413 0.7542 -6.1322 -0.9296 1.0888 -0.4820 -1.1273 -0.0735 4.2300 -2.0454 -1.4481 6.5117 1.8023 0.6289 -2.6596 1.3361 -0.3455 -10.1194 1.0300 -1.3208 -9.1774 1.3419 1.0001 -9.7514 -1.1264 0.6187 1.8849 0.7192 -0.9512 -7.8663 1.3848 0.5259 -5.1306 -0.0774 0.9443 -1.5401 1.2571 1.7850 2.3149 0.9600 0.6980 -3.7495 -0.4307 1.2357 0.8444 -0.5456 0.5858 3.1547 0.7302 0.4025 -7.4794 1.0465 1.3945 -8.4324 2.5885 2.4245 2.5533 1.0826 2.8589 -8.0900 -0.8781 -3.3085 7.8450 -2.1685 -1.0858 4.0663 -1.1796 0.6307 5.5134 -2.0752 -2.3753 7.6469 -2.0201 -2.1076 5.2017 -1.0160 -0.4099 6.6302
-3.1349 -5.0090 7.9668 -0.6758 0.4457 -5.7279 2.2256 -0.9889 0.0812 -0.4411 1.5287 -3.7005 0.8908 1.1353 -11.3029 -0.5041 -0.7415 -10.5298 1.9313 2.6711 -9.6871 0.9860 -1.3166 2.3146 -0.1045 4.0975 0.6818 -0.9310 4.1402 2.2542 -1.7224 3.3867 0.8513 2.5091 2.0983 -6.3203 1.0386 3.1080 -6.3737 2.3644 3.3918 -7.5118 -1.6946 -4.0614 6.4959 -3.0957 -3.0164 6.8563 -1.9467 1.0029 4.7999 -0.6073 1.2184 5.9423 1.6305 -1.2780 4.4293 1.4231 -0.1297 5.7516 -0.3945 -2.8974 8.3144 -1.7588 -1.8565 8.6378 -2.4019 -0.1318 6.9643 -2.3843 -1.2521 5.5919 1.0410 -2.5071 6.4649 -0.2465 -2.6690 5.2584 -1.2036 -1.6285 -7.9296 2.2652 -0.7987 -5.8035 -2.5575 -4.3193 8.3357 1.9611 -0.9619 -2.7501 0.2473 0.7304 -1.8713 0.4692 1.5788 0.6958 -0.3563 1.7206 2.9352 0.2557 0.3084 -6.1120 1.3708 -0.4898 -0.1531 -0.2053 -0.1725 4.4006 -0.7134 -1.3990 6.8874 0.2345 0.8193 -3.2410 0.7445 0.9751 -10.2386 -0.0370 -0.0891 -9.7962 1.3351 1.8401 -9.3176 0.6830 -0.2845 2.1585 -0.2076 -0.3056 -8.4271 1.2794 -0.2323 -5.3304 1.1262 -0.1637 -1.4585 -0.1560 2.2185 1.6983 1.0790 -0.0433 -3.9049 0.8645 0.3058 0.9125 0.0742 0.4571 3.1806 0.4120 0.5432 -7.4950 1.1701 1.6442 -7.9382 -0.7627 3.5413 1.3566 1.8054 2.6143 -6.9806 -2.1810 -3.4550 7.2659 -1.1398 0.4804 5.3257 0.8902 -0.8411 5.1060 -1.2404 -2.3908 7.8316 -1.7551 -0.6084 6.2186 0.2517 -1.9630 5.9358
-2.6707 -5.0561 6.3806 -0.2607 -0.1117 -5.9049 -1.4408 -0.1765 -0.4913 2.5246 2.2357 -2.9428 2.1745 0.3246 -11.2270 3.2351 -1.2302 -9.6374 0.3999 1.8563 -10.4848 -1.5359 -0.6352 1.9122 2.5323 3.3844 2.8371 3.0505 2.7338 1.2690 3.4906 1.8810 2.7579 -0.2814 2.8118 -7.2187 -1.5305 1.6067 -7.6326 -0.9793 2.7760 -8.8401 -1.8906 -4.2552 8.3696 -0.9043 -3.8068 6.9771 -2.7803 -0.1613 3.7336 -2.4874 0.8924 5.1212 1.0983 0.0868 5.4829 -0.2456 1.0450 6.1281 -1.5879 -1.9693 8.7492 -3.1888 -2.0575 8.0771 -3.6040 -1.2348 5.7941 -2.2965 -2.1729 5.0499 0.2170 -0.9284 7.5432 0.0615 -2.0033 6.1449 2.8124 -1.6893 -6.8769 2.2774 1.8021 -5.6062 -2.8989 -4.1374 6.6037 -0.2918 0.0384 -3.1807 1.1708 1.3877 -1.5677 1.0396 1.2996 0.9733 0.8429 1.3029 3.3402 0.6426 0.2832 -6.1504 -0.4474 0.0403 -0.4427 -0.7536 -0.1004 4.4198 -1.7619 -1.1622 6.8313 1.6605 1.5963 -2.8226 1.8506 0.3094 -10.1900 2.4448 -0.5702 -9.2895 0.8436 1.1749 -9.7621 -0.6980 0.0509 1.9963 2.0275 -0.5897 -7.9574 1.3562 1.0643 -5.2464 0.1627 0.5359 -1.5730 1.4444 1.6627 2.1963 0.9960 0.9572 -3.8445 -0.0406 0.4961 0.8519 -0.2267 0.4700 3.2537 1.0152 0.2798 -7.5172 0.4149 1.1769 -8.4243 2.7025 2.4649 2.2726 -0.6542 2.1465 -8.0039 -1.8741 -3.6493 7.4572 -2.1983 -0.0591 4.6550 0.0163 0.0858 5.6589 -2.1298 -2.1835 7.8185 -2.5293 -1.2417 5.5817 -0.3160 -1.0782 6.5969
-2.3211 -1.3642 9.9731 0.0102 1.5388 -5.7357 2.3581 -1.1192 0.0020 -0.4121 1.5683 -3.5980 0.7671 0.3516 -11.3664 0.6409 -1.6585 -9.9466 0.7924 2.5922 -10.3597 0.9097 -1.5961 2.1044 -1.0058 3.7964 2.4419 -0.7197 3.6297 0.7028 0.5979 4.1767 1.7643 1.6019 3.4324 -7.0905 -0.1807 3.4620 -7.2005 0.8045 4.0255 -8.5515 -2.7221 -3.4461 9.1606 -3.4304 -2.1764 8.1560 -2.1274 0.4535 4.4615 -0.9657 0.6375 5.7894 1.5492 -1.6838 4.3731 1.1725 -0.6383 5.7475 -2.2717 -3.7398 6.6595 -0.8648 -3.7651 7.7144 -2.8165 -0.8477 6.4316 -2.5272 -1.9035 5.0413 0.7851 -3.0565 6.2577 -0.3651 -3.1776 4.9164 0.4946 -1.9873 -7.1449 2.8948 0.3033 -5.7114 -1.7575 -1.6428 9.2319 2.3657 -0.5440 -2.7835 0.2828 0.6249 -1.8431 0.8006 1.5152 0.8330 -0.1554 1.4697 3.0310 0.6711 0.8505 -6.0866 1.5554 -0.5312 -0.2033 -0.2955 -0.6122 4.2248 -1.0409 -2.0096 6.5565 0.3534 0.9302 -3.1798 0.7469 0.4539 -10.2853 0.6791 -0.6783 -9.4789 0.7698 1.7217 -9.7073 0.7240 -0.5263 2.0566 0.6471 -0.5452 -8.0894 1.7585 0.4974 -5.2790 1.3126 -0.1135 -1.4773 0.1749 2.0900 1.8786 1.4084 0.3768 -3.8733 1.0520 0.1886 0.9126 0.1220 0.1458 3.1243 0.7131 0.7269 -7.4965 0.7526 1.8791 -8.3115 -0.2634 3.5081 1.6918 0.7459 3.2760 -7.7530 -2.4839 -2.6136 8.4908 -1.3721 -0.0735 5.0559 0.7316 -1.3103 4.9992 -1.6496 -3.1124 7.3108 -2.0372 -1.2518 5.7774 0.0397 -2.4981 5.6806
-1.3667 -4.4591 9.1894 1.1577 1.8393 -5.5163 2.3957 -1.4386 0.2316 1.1184 2.1368 -3.3938 1.0444 0.6646 -11.2426 3.2166 0.3520 -10.1312 -0.9719 1.1642 -9.9284 0.2854 -1.5424 1.9980 2.4462 3.7661 1.8809 1.2536 3.9951 3.1723 0.7548 4.1412 1.4722 -2.0767 1.5725 -7.9081 -1.0977 2.3198 -6.6429 -1.4732 0.5767 -6.5765 -0.6121 -2.5792 8.0511 -1.3156 -3.8774 7.0534 -1.7079 -1.7851 2.8161 -2.8707 -0.6719 3.5319 -0.4360 1.3728 5.3961 -2.1475 1.1383 5.0088 -2.8650 -1.4623 8.1458 -3.5480 -2.7113 7.1356 -2.8400 -2.8501 4.7332 -1.1004 -2.6944 5.0275 -1.6063 0.2911 7.2615 -0.3355 -0.7552 6.6068 3.9929 0.4831 -7.4255 1.8179 -1.3057 -5.6788 -2.0033 -3.7557 8.9773 1.9488 -1.2699 -2.6491 1.4241 1.0209 -1.6313 1.6577 1.4055 1.1470 0.1930 1.6700 3.0204 1.3611 0.9436 -5.9498 1.7334 -0.7084 -0.0163 -0.8622 -0.2222 4.0241 -2.3192 -1.3506 6.1365 1.3619 1.1606 -2.9987 1.1116 0.7427 -10.1611 2.3377 0.5672 -9.5289 -0.0280 1.0208 -9.4070 0.4841 -0.4754 2.0327 2.4264 0.6618 -8.1383 1.6049 -0.2006 -5.1777 1.6880 -0.2263 -1.2933 1.0731 2.1382 2.1128 1.6067 0.0228 -3.7373 1.3179 0.0976 1.0775 -0.0916 0.3441 3.0069 1.2755 0.8957 -7.3640 0.0352 1.1029 -8.0045 1.4029 3.5959 2.1641 -1.2230 1.4101 -7.2393 -1.5360 -3.1070 7.7980 -1.9183 -1.1894 3.7097 -1.1964 0.6139 5.1817 -2.6251 -2.1492 7.3233 -2.0368 -2.1292 4.9233 -1.3167 -0.3115 6.3932
-1.2094 -4.9181 8.9423 -0.4168 0.2747 -6.0260 -1.2808 -0.7832 -0.5857 3.0258 1.1248 -2.9375 2.0159 0.4731 -11.3616 2.7247 -1.3679 -9.8896 0.6350 2.3101 -10.4888 -1.5504 -0.8767 1.7979 3.2134 2.2116 1.3690 2.9782 2.4191 3.1134 2.1550 3.5089 1.9669 -0.4902 3.4141 -8.7477 0.2050 3.1777 -7.1408 -1.2765 2.3051 -7.6153 -0.5658 -3.4288 7.3548 -2.2062 -4.0658 7.1036 -2.8041 -0.7290 3.4928 -2.8915 0.4947 4.7569 0.6992 0.6387 5.5405 -0.9042 1.2821 5.9174 -1.7919 -1.5573 8.7828 -3.2615 -2.1097 8.0238 -3.5828 -1.7455 5.5910 -2.0302 -2.4416 5.0999 -0.1490 -0.3565 7.6038 0.1040 -1.5790 6.3487 2.2430 -1.8949 -7.1546 2.5043 1.4706 -5.5882 -1.5527 -4.0144 9.0437 -0.3837 0.1023 -3.2772 1.5386 0.4340 -1.6096 0.9278 1.1742 0.8490 0.6874 1.2248 3.2115 0.5564 0.4540 -6.2551 -0.5210 -0.1107 -0.5526 -0.9134 -0.1286 4.3282 -1.9308 -1.1141 6.7561 2.0086 0.7700 -2.8476 1.7105 0.4690 -10.3187 2.1061 -0.5715 -9.4840 0.9268 1.5073 -9.8150 -0.7548 -0.1438 1.8886 1.7119 -0.5794 -8.1438 1.4521 0.9009 -5.2873 0.2571 0.1230 -1.6561 1.3002 1.5735 2.0702 1.1289 0.6210 -3.8974 -0.1056 0.3104 0.7404 -0.3530 0.3542 3.1412 0.9235 0.4625 -7.6257 0.5259 1.5223 -8.4671 2.4833 2.4811 2.1403 -0.3057 2.6695 -7.9648 -1.5870 -3.4309 7.7447 -2.3507 -0.4061 4.4338 -0.3635 0.3789 5.5982 -2.1786 -2.0287 7.8697 -2.5147 -1.5298 5.4751 -0.5219 -0.7266 6.6416
-1.3053 -2.0064 9.6397 0.5098 1.9387 -5.6331 1.5140 -1.9721 -0.2749 0.0276 1.9227 -3.4983 2.3682 1.6200 -11.1398 4.0716 1.1677 -9.4207 0.0068 1.9015 -10.5200 0.1850 -1.9977 1.9664 0.1036 3.6695 2.1244 1.1740 3.4882 0.7275 1.8653 3.5401 2.3646 -1.7205 1.9509 -8.9757 -1.2688 2.5935 -7.3946 -1.5410 0.8425 -7.6113 -3.5089 -2.5392 9.2325 -3.6209 -1.0667 8.2729 -1.3474 1.0538 4.8323 -0.0978 0.4769 5.9507 0.7575 -2.5660 4.0606 1.0925 -1.6263 5.5172 -3.1774 -2.9948 6.7707 -1.8507 -3.5107 7.8053 -2.3518 0.0280 6.8154 -2.7981 -0.8721 5.3580 -0.3766 -3.6128 5.9640 -1.5799 -2.9929 4.8221 3.8888 0.8610 -6.6160 0.7024 -1.1840 -6.0901 -1.8995 -1.2845 9.3726 1.3115 -1.3953 -3.0511 0.4081 0.6774 -1.8395 1.1632 0.9877 0.7732 0.4736 1.1869 3.0529 0.9305 1.1220 -6.0673 0.9686 -1.1208 -0.3818 -0.3389 -0.7342 4.2378 -1.3886 -1.8559 6.6088 0.3829 0.9515 -3.1827 2.0721 1.5318 -10.0988 3.0312 1.2718 -9.1248 0.7330 1.6841 -9.7399 0.4257 -0.9379 1.9638 2.6496 1.1478 -7.7886 0.8087 -0.1313 -5.4616 0.8647 -0.5395 -1.6129 0.9028 1.7001 1.8825 0.7960 -0.0679 -4.0115 0.8921 -0.3365 0.8016 0.2353 -0.1485 3.1034 1.2981 1.2631 -7.4234 0.3250 1.5565 -8.4019 1.0202 3.1870 1.7699 -1.1314 1.7454 -8.0736 -2.9374 -1.8602 8.5917 -0.8923 0.1546 5.2621 0.2999 -1.9185 4.8152 -2.3582 -2.6253 7.4000 -1.9646 -0.6285 6.0303 -0.8043 -2.6961 5.5439
-4.2013 -3.8916 8.9142 0.8884 -0.2289 -5.4866 -1.5491 2.6024 0.0031 1.6746 0.0262 -3.2920 2.1621 1.2049 -10.9818 3.2474 2.6440 -9.3009 0.5277 -0.4988 -10.2995 -1.6180 0.5936 1.9587 3.7715 2.1050 3.3274 3.5723 3.1287 1.8895 3.9417 1.3988 1.7070 -1.2499 -0.6392 -7.3160 0.0894 -1.8113 -7.1687 -0.7453 -1.6019 -8.7104 -3.9519 -2.6045 7.0894 -2.8712 -2.1244 8.4211 -2.4106 0.3869 3.9531 -1.6788 0.7140 5.5247 1.5651 -0.9133 4.7804 0.6453 -0.0176 6.0040 -2.1230 -3.8744 5.9954 -1.0892 -3.6361 7.4040 -3.2543 -1.2126 5.5590 -2.3008 -2.0626 4.3362 0.6813 -2.4430 6.4906 0.0170 -2.8145 4.8916 3.0130 2.7735 -6.4896 -0.4210 2.6417 -5.7503 -3.4217 -4.0973 8.3697 -0.9348 2.4201 -2.7453 0.6434 0.7534 -1.5933 1.2484 2.1578 1.1568 1.4294 1.0999 3.3028 0.8595 0.7147 -5.8644 -0.7962 1.9293 -0.1052 -0.3669 -0.2376 4.1618 -1.3552 -1.9021 6.2326 0.9061 0.7032 -2.9442 1.8993 1.1036 -9.9328 2.5073 1.9157 -8.9799 0.9666 0.1451 -9.5404 -0.6052 0.9653 2.0830 2.1737 1.7794 -7.6308 0.1383 1.7013 -5.1851 -0.3030 1.6359 -1.3386 1.9289 1.8081 2.2666 0.1378 1.5249 -3.7423 -0.0271 1.7192 1.0662 0.1504 0.6590 3.2156 1.2021 0.8456 -7.2312 0.6055 0.0015 -8.1911 3.3891 2.1332 2.3027 -0.3821 -1.0708 -7.8230 -3.0804 -2.9026 7.6794 -1.7111 -0.0067 4.6968 0.5598 -0.7424 5.1822 -1.8668 -3.1625 6.7902 -2.2383 -1.3632 5.1821 0.0110 -2.0757 5.7053
-1.4321 -4.6418 9.2217 0.3240 -0.4850 -5.9198 0.4679 -1.6323 -0.4349 2.2988 2.5824 -2.9559 1.9429 1.0997 -11.3314 3.7180 0.2781 -9.8381 -0.3095 1.5565 -10.4606 -0.7716 -1.3704 1.7446 3.2148 2.7277 1.8205 2.5317 3.0366 3.4270 1.7706 3.7501 1.9849 -1.8749 1.6786 -8.7099 -1.1895 2.0330 -7.1208 -1.6957 0.3730 -7.5297 -0.5534 -3.0061 7.8335 -1.8172 -4.0402 7.1264 -2.3619 -1.3694 3.0954 -3.0084 -0.0907 4.1186 0.1797 1.0110 5.5904 -1.5685 1.2696 5.5347 -2.4568 -1.4021 8.5420 -3.5576 -2.3668 7.5926 -3.3673 -2.3409 5.1147 -1.6302 -2.6783 5.0580 -0.8879 0.0364 7.5598 -0.0866 -1.2016 6.5803 3.7369 -0.3294 -7.0780 1.6848 2.3799 -5.6005 -1.8945 -3.7892 9.1587 0.4743 -0.4859 -3.1743 1.6252 1.1497 -1.5666 1.4488 1.0350 1.0347 0.5994 1.3318 3.2373 0.9123 0.2993 -6.1844 0.4908 -0.6161 -0.4450 -0.9000 -0.2408 4.2043 -2.2109 -1.2136 6.4864 1.7780 1.6440 -2.8287 1.7273 0.9311 -10.2802 2.7268 0.4635 -9.4334 0.4520 1.1878 -9.7775 -0.1757 -0.4757 1.8904 2.4504 0.2438 -8.0821 1.2868 1.2644 -5.2542 0.9053 0.0448 -1.5711 1.4004 1.6708 2.2140 1.2354 0.8946 -3.8491 0.6204 -0.0168 0.8440 -0.1864 0.2330 3.1005 1.1691 0.4998 -7.5653 0.1551 0.9804 -8.4190 2.2820 2.8662 2.3758 -1.2292 1.2836 -7.9175 -1.6166 -3.2594 7.8662 -2.2234 -0.8565 4.0511 -0.7831 0.5024 5.4693 -2.5117 -2.0424 7.6518 -2.3751 -1.8818 5.1899 -0.9340 -0.5050 6.6081
-4.3894 -3.9282 8.1345 0.1652 -0.2201 -5.8099 -1.7588 0.1512 -0.5719 2.2810 2.5855 -2.8424 1.3077 1.5139 -11.2892 -0.2568 2.9790 -10.0723 2.4357 -0.3392 -10.1368 -1.0579 -1.0177 1.7588 0.6083 4.2430 3.3152 0.9093 4.3666 1.5719 2.1456 3.6584 2.6293 2.8568 -1.6441 -8.2735 1.5616 -1.7706 -7.0808 2.9542 -0.6902 -6.7882 -3.3080 -2.8262 6.5202 -3.1410 -2.0005 8.0871 -0.3838 1.0693 5.6859 0.9999 -0.0264 5.8533 -0.0231 -2.3306 3.1410 1.1642 -2.0421 4.4110 -1.0935 -4.1135 7.3114 -0.9403 -2.8166 8.4672 -0.6458 -0.4640 7.6232 -1.9524 -0.5933 6.4351 -0.5146 -3.7874 5.0398 -1.8321 -2.6333 4.7873 -1.1480 2.9820 -7.3936 1.7613 2.5081 -5.5696 -3.4224 -4.0226 8.1759 -0.5825 0.4659 -3.1792 0.9850 1.6034 -1.4930 0.0296 2.0764 1.0365 0.4523 1.5559 3.3353 0.4125 0.7182 -6.1143 -0.7662 0.3490 -0.4668 -0.3088 -0.5232 4.2652 -0.6205 -2.2421 6.4854 1.4257 1.9300 -2.7482 1.1140 1.3408 -10.2345 0.2284 2.1625 -9.5443 1.7528 0.2931 -9.5732 -0.5947 -0.0480 1.9139 -0.0234 1.9341 -8.1899 1.0174 1.5934 -5.2082 -0.0877 0.8373 -1.5531 0.4756 2.3828 2.2689 0.7243 1.3830 -3.8012 -0.4575 0.8297 0.8434 -0.1112 0.3321 3.1716 0.6339 0.8939 -7.5072 1.5293 0.0574 -8.2056 1.0686 3.7431 2.4580 2.2655 -1.0747 -7.5464 -2.8613 -2.8921 7.5161 -0.0702 0.0218 5.6072 0.1036 -1.9260 4.1502 -1.3406 -3.0563 7.4738 -0.8899 -0.8035 6.6098 -0.7867 -2.7283 5.1096
0.4202 -4.3572 9.4162 1.9302 0.0318 -5.7652 1.6215 -0.9049 -0.2720 -0.5799 2.9257 -3.1475 0.0628 0.2751 -11.3232 -1.4486 -0.8436 -9.7370 2.0423 1.4895 -10.5193 0.0134 -1.3827 1.8064 1.4058 4.1744 1.9474 0.3864 4.1292 3.3967 -0.3604 4.3317 1.7965 3.4713 2.2235 -8.8212 3.5699 1.1934 -7.3891 2.5979 2.6894 -7.3565 0.4300 -2.5437 8.1030 0.0085 -4.0103 7.1829 -1.4707 -2.1614 3.0541 -2.7680 -1.3468 3.9242 -0.6942 1.2388 5.5296 -2.3317 0.5972 5.3329 -2.0387 -2.1221 8.4776 -2.4268 -3.5176 7.5022 -2.0534 -3.4455 5.0634 -0.3859 -2.8543 5.1564 -1.3318 -0.0795 7.4928 0.0617 -0.7901 6.6616 -1.3949 -1.0906 -6.9267 -0.4197 2.1730 -5.7691 -0.4656 -4.0396 9.1722 1.1086 -0.2240 -3.0482 0.0561 1.6283 -1.6108 0.7967 1.7980 1.0692 -0.3111 1.6792 3.1835 1.0784 0.4645 -6.1108 0.9222 -0.1703 -0.3268 -0.8821 -0.4164 4.1686 -1.7590 -1.8549 6.4277 -0.0767 1.9966 -2.9203 0.2768 0.3122 -10.2586 -0.5728 -0.3226 -9.3590 1.3983 0.9984 -9.7927 0.0659 -0.3063 1.9314 -0.2963 -0.2810 -7.9904 0.3223 1.3072 -5.2982 0.6699 0.4657 -1.5096 0.3099 2.3512 2.1942 0.4246 1.1212 -3.8598 0.6247 0.4641 0.9132 -0.4157 0.3294 3.0809 0.8301 0.4104 -7.5080 1.6896 1.0625 -8.4176 0.4446 3.8334 2.3445 2.9000 1.8346 -7.9697 -0.3331 -3.3129 7.9534 -1.7042 -1.6164 3.9726 -1.2692 0.3181 5.3826 -1.6945 -2.7087 7.6159 -1.4394 -2.5443 5.1720 -1.0162 -0.6000 6.5815
-2.5282 -5.1722 6.0235 -0.6235 -0.2569 -5.8471 -1.9121 -0.0118 -0.3661 1.4130 2.9472 -3.1386 1.5656 0.5427 -11.2223 -0.8295 0.7381 -10.6865 3.2342 0.3215 -9.4275 -1.6356 -0.6038 2.0143 2.8724 2.7705 1.2591 2.6893 3.0803 2.9954 1.7587 4.0394 1.8162 2.5000 -0.3764 -5.9218 3.0868 1.2444 -6.3723 3.7544 -0.2043 -7.1488 -1.4737 -4.7348 7.9183 -0.4820 -4.2075 6.5539 -2.7263 0.0070 4.1064 -2.1389 0.8441 5.5505 1.4072 -0.0859 5.1032 0.2543 0.7802 6.1328 -0.6748 -2.5557 8.4856 -2.3884 -2.4428 8.2135 -3.2165 -1.3326 6.1308 -2.1199 -2.1727 5.0169 0.8807 -1.3898 7.1330 0.4035 -2.2479 5.6588 -2.2160 0.7790 -8.2127 0.5737 2.6863 -5.8092 -2.5195 -4.2272 6.2505 -1.0032 0.3043 -3.1533 0.3301 1.9031 -1.6588 0.5210 1.7106 0.8887 0.6535 1.5573 3.2593 0.0130 0.4777 -6.1438 -0.9485 0.3129 -0.4148 -0.6179 -0.0917 4.4144 -1.2076 -1.4605 6.7911 0.6883 2.1671 -2.9500 1.2407 0.5232 -10.1856 -0.1124 0.6342 -9.8751 2.1814 0.3933 -9.1649 -0.8823 0.1794 2.0291 -0.5266 0.6173 -8.5382 0.2146 1.6016 -5.3462 -0.5155 0.8919 -1.5858 1.0374 2.0589 2.0761 0.0543 1.4191 -3.9155 -0.4449 0.7655 0.8457 -0.3013 0.5949 3.2407 0.4159 0.4817 -7.5042 1.7844 0.3636 -7.8188 2.1565 3.0465 2.0416 2.8396 0.2482 -6.7539 -1.4068 -4.0063 7.1028 -1.9888 -0.0392 4.9154 0.3809 -0.1015 5.4878 -1.4347 -2.5938 7.6933 -2.2024 -1.3322 5.7169 0.1723 -1.3856 6.2964
-2.6107 -1.2226 9.5118 2.0513 0.0509 -5.7921 1.8829 -1.0451 -0.4216 -0.4781 2.8810 -3.0457 1.3408 1.8911 -11.3248 2.4775 3.4682 -9.8135 0.3194 -0.1656 -10.4440 0.8218 -1.7010 1.8206 -0.0480 3.9431 1.3239 0.8521 3.9608 2.8561 -0.9062 3.6726 2.8488 -0.8773 -0.8773 -7.8101 0.5956 -1.4118 -6.9670 0.3420 -1.8493 -8.6547 -3.8803 -2.6979 8.3845 -3.6787 -1.7288 6.9264 0.7505 0.4334 5.6364 1.3877 -1.2164 5.6387 -1.1009 -2.4016 3.0740 0.2473 -2.9541 4.0864 -2.1448 -3.8676 7.3855 -1.2817 -2.8462 8.4942 -0.0564 -0.8537 7.6038 -1.3787 -0.2729 6.5790 -1.9187 -3.6355 5.0468 -2.5047 -1.9649 5.0124 2.9246 3.4256 -7.0249 -0.1850 2.3273 -5.7182 -2.9304 -0.9089 8.6487 1.4708 -0.1195 -3.1271 0.1758 1.4882 -1.6007 0.7560 1.5669 1.0243 -0.0094 1.2409 3.2599 1.5628 0.8837 -6.1097 1.1671 -0.3240 -0.4173 -0.1455 -0.8938 4.2292 -1.0237 -2.3573 6.4748 0.0844 1.9725 -2.8765 1.3956 1.6757 -10.2613 2.0393 2.5615 -9.4040 0.8195 0.5118 -9.7543 0.6807 -0.6315 1.9455 2.1109 2.2812 -8.0369 0.6355 1.5164 -5.2808 0.8999 0.3857 -1.5593 0.2855 2.0151 2.1998 0.6976 1.2241 -3.8583 0.9019 0.2295 0.8710 0.2050 -0.0954 3.1481 1.5227 1.1145 -7.5119 0.8716 0.2133 -8.3796 0.0306 3.4841 2.3153 0.1989 -1.0494 -7.9182 -3.1787 -2.0530 7.8429 0.4722 -0.6217 5.5264 -0.6068 -2.2650 4.0424 -1.8794 -2.8191 7.5744 -0.5408 -0.9799 6.6285 -1.6131 -2.5884 5.1517
-1.3475 -5.1599 6.5149 1.7510 -0.2840 -5.6991 1.4821 -1.3192 -0.2504 0.1268 3.0522 -2.8949 1.2091 1.6291 -11.2247 2.4655 3.1030 -9.7072 0.0123 -0.3328 -10.3524 -0.2905 -1.2607 1.8356 1.7045 3.8741 3.4856 2.0673 3.9666 1.7523 3.1987 3.1472 2.8577 -0.7048 -1.7121 -8.5994 -0.9257 -0.9003 -7.0451 0.5124 -1.9169 -7.3327 -1.7891 -3.9974 8.5321 -0.5667 -3.3451 7.4364 -2.1511 -1.1915 2.9710 -2.8619 -0.0080 4.0670 0.2689 0.9710 5.7496 -1.4797 1.2321 5.6592 -2.4043 -1.7399 8.4025 -3.5405 -2.5407 7.3583 -3.2390 -2.3364 4.8634 -1.4939 -2.6470 4.8419 -0.8738 -0.1673 7.5990 -0.0312 -1.3205 6.5521 2.9064 3.0196 -6.9219 -0.1839 2.2570 -5.5388 -2.0471 -4.4872 6.5723 1.1284 -0.3786 -2.9746 0.5429 1.5921 -1.4288 1.6759 1.4018 1.2429 0.6037 1.6027 3.3757 1.3288 0.5873 -6.0073 1.0616 -0.3955 -0.2443 -0.7563 -0.1575 4.2358 -2.1482 -1.3285 6.3739 0.4387 2.0322 -2.7205 1.2369 1.4093 -10.1607 1.9492 2.2374 -9.2996 0.5597 0.2992 -9.6559 0.1874 -0.3012 2.0093 1.9917 1.9530 -7.9316 0.5560 1.3565 -5.1355 0.9020 0.3237 -1.3941 1.4345 2.0368 2.4067 0.7044 1.1089 -3.7099 1.0095 0.2438 1.0246 -0.0152 0.4104 3.1973 1.3023 0.8436 -7.4073 0.5776 0.0034 -8.2794 2.1427 3.3330 2.6408 -0.1780 -1.1991 -7.7861 -1.6372 -3.5409 7.5483 -2.0666 -0.7598 3.9731 -0.6889 0.4742 5.5595 -2.4810 -2.2706 7.4437 -2.2563 -1.8757 5.0150 -0.8805 -0.6273 6.6042
0.5172 -4.9290 6.9513 0.9645 -0.5433 -5.6096 1.8803 -0.7261 -0.0762 0.2476 3.2982 -3.0258 -0.1405 0.8658 -11.1964 -2.0166 1.1090 -9.6215 2.1291 0.4031 -10.3721 0.1539 -1.2278 1.8940 1.5208 4.3234 2.2106 0.3765 4.2712 3.5636 -0.2253 4.4817 1.9046 3.6649 -0.0256 -8.6410 2.9991 -0.8253 -7.2124 3.3232 0.9282 -7.1914 -0.6493 -3.9983 8.7173 0.2940 -2.8641 7.7505 -1.6625 -1.8501 2.9088 -2.8635 -1.0164 3.8913 -0.5264 1.2093 5.6733 -2.2190 0.7336 5.4722 -2.1642 -2.2289 8.3271 -2.6862 -3.5080 7.2712 -2.3411 -3.2653 4.8112 -0.6199 -2.8562 4.8964 -1.2488 -0.2247 7.5239 0.0643 -0.9699 6.5991 -2.1608 0.9321 -6.8075 0.6999 2.6431 -5.6405 -0.3627 -4.5554 6.7767 1.2735 -0.1251 -2.9031 0.7008 1.9374 -1.4806 0.9616 1.9645 1.2383 -0.2595 1.8171 3.2888 0.7066 0.3701 -5.9716 1.1880 0.0111 -0.1765 -0.8942 -0.2978 4.1823 -1.8525 -1.8442 6.3075 0.5525 2.2877 -2.7929 0.0344 0.7605 -10.1291 -1.0237 0.8927 -9.2357 1.3186 0.4974 -9.6527 0.2007 -0.1514 2.0272 -0.8020 0.7515 -7.8631 0.7569 1.5058 -5.1653 1.0458 0.6699 -1.3668 0.4120 2.5014 2.3440 0.8192 1.3080 -3.7256 0.8097 0.6319 1.0510 -0.3505 0.4717 3.1535 0.4886 0.4883 -7.3709 1.5646 0.3612 -8.2742 0.5286 3.9816 2.5189 2.9673 0.0942 -7.8043 -0.5760 -3.5277 7.7313 -1.8296 -1.3868 3.8864 -1.1852 0.3596 5.4624 -1.8754 -2.7858 7.4253 -1.6347 -2.4458 4.9849 -0.9943 -0.6833 6.5616
-2.5720 -2.6309 10.5523 -0.6606 0.3776 -5.9262 2.1690 -1.2358 -0.1246 -0.4302 1.4491 -3.8375 1.0894 1.6455 -11.3432 -0.2620 -0.3413 -10.8021 2.0129 3.0573 -9.5528 0.8428 -1.6303 2.0646 -1.7224 3.3974 1.5811 -0.5818 3.5824 0.2415 -0.1056 4.0899 1.8769 2.3581 3.5739 -7.3052 2.4718 2.1891 -6.2190 0.9825 3.1707 -6.2667 -2.2648 -1.2540 8.8311 -0.7312 -2.0108 9.3219 -2.0537 0.6899 4.5796 -0.7365 0.7996 5.7625 1.4318 -1.7329 4.1906 1.2497 -0.6287 5.5542 -2.5218 -3.1555 7.0965 -0.9186 -3.7055 7.5707 -2.6202 -0.5157 6.6585 -2.5752 -1.6117 5.2709 0.7476 -3.0104 6.1597 -0.5452 -3.0627 4.9481 -1.0239 -1.4890 -8.3243 2.2879 -0.8151 -5.9926 -2.4278 -3.0925 9.7081 1.9431 -1.0906 -2.9504 0.2266 0.5767 -2.0297 0.5023 1.3596 0.5748 -0.3762 1.4326 2.7983 0.2914 0.3201 -6.2788 1.3269 -0.7111 -0.3473 -0.3486 -0.5367 4.1703 -0.9411 -1.8097 6.6116 0.2339 0.7183 -3.3949 0.9106 1.3815 -10.3048 0.1534 0.2550 -9.9935 1.4353 2.1759 -9.2854 0.5927 -0.5787 1.9513 -0.0594 -0.0931 -8.6577 1.3017 -0.2587 -5.5086 1.0968 -0.3365 -1.6411 -0.1251 1.9774 1.5900 1.0833 -0.1230 -4.0800 0.8328 0.0606 0.7408 -0.0085 0.1404 2.9921 0.4931 0.6855 -7.6273 1.2273 1.8469 -7.9373 -0.6638 3.3435 1.3084 1.7907 2.7444 -6.8708 -1.7112 -2.1979 8.8697 -1.2808 0.1126 5.0988 0.6985 -1.2871 4.8688 -1.5538 -2.8144 7.4844 -1.9544 -0.9877 5.9275 -0.0074 -2.4055 5.6460
-0.5346 -1.0817 10.1043 2.5445 0.4598 -5.7071 -1.4328 -1.5750 -0.6665 2.1155 1.0599 -3.5618 1.9084 2.0504 -11.2102 3.4226 0.2807 -10.3940 0.2939 3.1158 -9.6908 -1.3059 -1.7186 1.7206 2.3153 2.6388 0.9471 1.7381 3.1235 2.5586 0.7973 3.5451 1.1077 0.4336 3.0999 -6.2399 -0.8395 1.9133 -6.6363 -0.6836 3.4003 -7.5809 -2.5775 -2.3197 9.8195 -2.4136 -0.7021 9.1251 -1.0816 1.1617 4.9711 0.2709 0.2575 5.6784 -0.2939 -2.7777 3.5814 0.7135 -2.1082 4.8713 -3.3141 -2.1327 7.3803 -2.1683 -3.4126 7.7505 -1.6812 0.2539 7.1695 -2.7262 -0.3790 5.8889 -1.0277 -3.6736 5.7456 -2.3091 -2.6944 5.0167 3.7091 -0.9201 -7.8370 -0.0892 -1.0234 -6.4013 -0.6622 -1.7454 9.4047 -0.7032 -1.1504 -3.3953 0.9535 0.2314 -2.0075 0.2632 0.9794 0.4802 0.4435 0.9393 2.8572 1.6352 0.5060 -6.1619 -0.7619 -0.8146 -0.7223 -0.7242 -0.7506 4.1054 -1.3434 -1.7847 6.6717 1.2850 0.4078 -3.3248 1.8459 1.7190 -10.1778 2.6953 0.7166 -9.7139 0.9293 2.3189 -9.3142 -0.7205 -0.8046 1.7017 2.6137 0.2997 -8.3850 0.6271 -0.3305 -5.6803 -0.1154 -0.5341 -1.8890 0.6704 1.4913 1.6510 0.5149 -0.2827 -4.2350 -0.3993 -0.1980 0.4963 -0.2853 -0.2068 2.8890 1.6803 0.8894 -7.5190 0.8395 1.9201 -7.9750 1.4260 2.7770 1.5704 -0.1196 2.6228 -7.0561 -2.0421 -1.7307 9.0682 -0.7379 0.1592 5.2527 -0.3009 -2.1099 4.4501 -2.2741 -2.3222 7.6770 -1.7062 -0.4053 6.2951 -1.3109 -2.6492 5.4756
0.5496 -4.5253 7.8485 1.0669 1.9547 -5.6406 2.0397 -1.2683 0.2078 0.2642 1.9903 -3.5362 -0.2048 0.2977 -11.1098 -1.4536 -0.9045 -9.3654 1.5900 1.8645 -10.5064 0.3327 -1.5761 2.1850 -1.1660 3.9317 1.6354 0.3947 3.9891 0.7935 0.3410 4.1433 2.5618 2.3073 3.1174 -7.1650 2.6584 3.2387 -8.8842 3.4549 1.9833 -7.9215 -0.5721 -3.2800 9.2733 0.3253 -2.2178 8.1831 -1.5287 -2.2177 3.2163 -2.8621 -1.3505 3.9801 -0.8423 1.4108 5.3596 -2.4688 0.7273 5.2148 -2.1475 -1.6310 8.6170 -2.6054 -3.0999 7.8060 -2.1430 -3.3141 5.3381 -0.4840 -2.6877 5.3825 -1.4971 0.2869 7.4405 -0.0790 -0.4843 6.7116 -1.2875 -0.8707 -6.5569 2.1878 -0.9953 -5.7284 -0.1951 -4.0622 7.4299 1.9354 -1.0607 -2.6726 0.6702 0.9616 -1.7421 0.7195 1.5083 0.9114 -0.6318 1.5847 2.8791 1.0564 1.0034 -5.9985 1.3159 -0.6106 -0.0696 -0.9915 -0.3785 4.1816 -1.8815 -1.5935 6.5483 0.7294 1.1152 -3.1045 0.0414 0.4588 -10.0641 -0.6617 -0.2189 -9.0748 1.0595 1.3441 -9.7118 0.2158 -0.5007 2.0875 -0.3411 -0.0202 -7.7296 1.5977 -0.0355 -5.2320 1.2554 -0.1572 -1.3593 0.0040 2.1616 1.8424 1.3753 0.1156 -3.7993 0.7743 0.1594 0.9970 -0.5033 0.2436 3.0316 0.7112 0.8399 -7.3631 1.4057 1.5551 -8.3639 -0.1125 3.6446 1.7004 2.5158 2.5265 -8.0616 -0.4996 -2.9346 8.2364 -1.7965 -1.5975 4.0780 -1.4031 0.4712 5.3052 -1.8357 -2.3192 7.8191 -1.5428 -2.3977 5.3661 -1.1574 -0.3188 6.5924
-0.5581 -4.4827 8.7668 1.9786 1.7449 -5.4703 -2.1146 1.5702 -0.4151 2.0852 0.8138 -3.3879 1.9584 1.4846 -11.2486 1.8468 3.5744 -9.9463 1.7693 -0.7015 -10.1324 -2.0051 -0.2061 1.7529 2.5071 3.0504 3.0745 2.6110 3.1609 1.3081 3.3678 1.7927 2.1500 1.5717 -2.0335 -8.1974 0.4724 -1.3435 -6.9973 2.2330 -1.3109 -6.7241 -2.4958 -3.3046 9.3699 -1.0465 -2.3444 9.0248 0.1499 0.8428 5.5429 0.7525 -0.8247 5.4685 -1.7548 -1.9776 2.9818 -0.3984 -2.4862 3.9898 -3.0704 -1.4142 7.8646 -3.3571 -2.9681 7.1074 -0.5964 -0.4777 7.4924 -1.9505 0.1531 6.5424 -2.6011 -3.1607 4.9360 -3.1450 -1.4746 4.9564 1.4942 4.0499 -7.1704 -1.0314 1.0058 -6.1353 -1.1674 -4.1689 8.0773 -1.4734 1.1618 -3.1296 0.6952 0.8397 -1.7946 0.5678 1.7695 0.8758 0.8724 0.9324 3.0982 1.2672 1.2554 -6.0082 -1.2874 0.9781 -0.4590 -0.8347 -0.4152 4.1290 -1.6394 -1.9398 6.3748 1.0392 0.8964 -3.1241 1.8152 1.4420 -10.1726 1.7482 2.6213 -9.4330 1.7077 0.2049 -9.5353 -1.0552 0.3129 1.8421 1.5607 2.5644 -8.0512 -0.0086 1.1102 -5.4579 -0.6086 0.9763 -1.6448 1.2432 1.6772 2.0351 -0.0064 1.0499 -4.0091 -0.5676 1.0457 0.7679 -0.3018 0.2567 3.0160 1.4416 1.3224 -7.4089 1.5302 0.1281 -8.1475 2.5072 2.4671 2.1491 1.4464 -1.2165 -7.4803 -1.8022 -3.0007 8.5799 -0.1520 -0.2029 5.4106 -1.2601 -1.8071 3.9435 -2.5617 -2.2985 7.4594 -1.1242 -0.5703 6.5362 -2.2641 -2.1246 5.0571
-3.3150 -4.9955 7.7607 -0.6645 0.7697 -5.7136 -1.7670 1.8537 -0.3069 2.6042 2.7009 -2.9509 1.5746 0.3952 -11.1272 0.7898 2.6054 -10.3793 1.7316 -1.4788 -9.5421 -1.6544 0.1920 1.7396 2.8062 3.7021 2.8004 3.4900 2.6219 1.5617 3.5115 2.1344 3.2626 1.4629 -2.4147 -7.4049 0.1809 -1.7100 -6.4116 1.8862 -1.2786 -6.1164 -3.7835 -2.8495 7.1451 -2.7217 -2.3067 8.4598 -2.6091 -0.2038 3.5652 -2.2734 0.3778 5.1932 1.3561 -0.2812 5.1696 -0.0036 0.3468 6.1129 -1.8017 -4.0849 6.1118 -0.8183 -3.5592 7.4758 -3.2644 -1.9029 5.1783 -1.9380 -2.5167 4.1844 0.6273 -1.9308 6.8212 0.4054 -2.5556 5.1783 -0.0734 3.5521 -7.8596 2.1934 2.2251 -5.5951 -3.1367 -4.3080 8.4249 -0.6908 1.3166 -3.0681 1.0952 2.3268 -1.5234 0.9786 2.1822 1.1363 1.0896 1.3104 3.3547 0.2287 1.1232 -6.0445 -0.8138 1.4997 -0.3562 -0.5377 -0.2389 4.1508 -1.3873 -1.9939 6.1746 1.6049 2.3196 -2.7918 1.2892 0.5428 -10.0891 0.8410 1.7895 -9.6626 1.3748 -0.5155 -9.1842 -0.7395 0.7401 1.9402 0.4706 1.9785 -8.3286 1.1330 1.7453 -5.1867 -0.0944 1.7593 -1.4923 1.5803 2.0284 2.3279 0.7837 1.8176 -3.7788 -0.1780 1.5117 0.9265 -0.0829 0.6513 3.1731 0.5606 0.9192 -7.4077 1.0167 -0.3429 -7.8363 2.9260 2.6585 2.5002 1.1437 -1.5027 -6.8890 -2.8876 -3.0993 7.7222 -1.9698 -0.3603 4.4382 0.2841 -0.4006 5.3591 -1.6604 -3.2702 6.8331 -2.1974 -1.7852 4.9631 0.0435 -1.8114 5.9012
-2.4751 -4.9179 9.2953 0.4208 -0.7527 -5.8002 1.7036 -0.7105 -0.2912 -0.0139 3.1809 -3.2716 0.7261 0.7210 -11.4488 -1.2209 -0.3671 -10.4014 2.5832 1.5582 -10.0698 0.3697 -1.3133 1.9009 0.0653 4.3586 1.0745 0.5135 4.3409 2.7922 -1.1965 4.1995 2.3103 3.2733 0.6726 -6.7403 2.5246 2.2909 -6.7448 3.6655 1.8398 -8.0126 -2.1123 -4.3037 7.1568 -2.8452 -3.0128 8.1391 -1.3102 -2.0434 3.2037 -2.4182 -1.2090 4.2957 0.0695 1.2413 5.5398 -1.6213 0.7204 5.6500 0.1576 -3.3022 7.4952 -0.5289 -2.1222 8.6100 -1.5852 -3.3557 5.2374 0.0904 -2.8078 5.1023 -0.3041 -0.0768 7.5832 0.8629 -0.8717 6.5133 -1.8490 -0.9095 -7.6864 -0.1249 2.3557 -5.8784 -1.6871 -4.3667 9.1499 0.8786 -0.2825 -3.1254 0.4528 1.8234 -1.7258 0.4569 1.8880 0.8903 -0.4280 1.7433 3.1002 0.5752 0.1814 -6.1711 0.8832 -0.1180 -0.4041 -0.4784 -0.3594 4.2336 -1.0479 -1.7979 6.5879 0.2674 2.1635 -3.0357 0.6878 0.6035 -10.3692 -0.4097 -0.0113 -9.7700 1.7399 1.0732 -9.5845 0.2325 -0.2363 1.9314 -0.4558 -0.1584 -8.3793 0.2598 1.2911 -5.3885 0.7361 0.5411 -1.5992 -0.0380 2.4330 2.0139 0.4411 1.1526 -3.9548 0.5402 0.5393 0.8204 -0.2624 0.3976 3.0783 0.6051 0.3068 -7.5845 1.7146 0.9289 -8.1902 -0.1714 3.9211 2.0500 2.8603 1.4619 -7.3761 -1.9366 -3.6030 7.9784 -1.3719 -1.5154 4.1610 -0.5904 0.3671 5.5028 -0.7377 -2.7022 7.7013 -0.9413 -2.4720 5.2799 -0.1953 -0.5972 6.6247
-4.8043 -2.5510 8.0379 2.3047 -0.4691 -5.8594 1.7002 -1.2504 -0.3877 0.6298 3.0772 -3.1957 0.9781 1.0591 -11.3407 3.2798 0.9450 -10.4685 -0.9471 0.8399 -9.8228 0.3028 -1.6086 1.7456 -0.0666 4.1068 2.0675 1.6073 3.9703 1.4905 1.2631 3.8515 3.2255 -0.8359 -0.3669 -6.4459 -1.8613 0.3173 -7.7105 -1.0523 1.3992 -6.5629 -3.0431 -1.2727 8.3055 -2.8427 -2.6818 9.3580 -1.2733 -2.2594 3.0393 -2.4280 -1.2562 3.9224 0.1081 0.9343 5.5118 -1.6303 0.6330 5.3363 -1.6623 -3.8190 7.3038 -0.7485 -2.6405 8.2245 -2.0103 -3.4536 5.0386 -0.2795 -3.0881 5.1655 -0.7779 -0.2453 7.4763 0.4546 -1.2100 6.6459 4.2894 0.5931 -7.8388 1.8295 2.5996 -5.7005 -4.0049 -2.9844 7.6951 1.7535 -0.3220 -3.1024 0.7264 1.5742 -1.7124 1.1342 1.5494 0.9602 0.1162 1.4714 3.1148 1.7536 0.3377 -6.1410 1.1316 -0.4096 -0.4533 -0.4152 -0.6248 4.1395 -1.5325 -1.8964 6.3878 0.9011 2.0513 -2.9845 1.1468 0.9037 -10.2787 2.4459 0.8379 -9.7784 0.0593 0.7764 -9.4159 0.3945 -0.5324 1.8528 2.6589 0.6442 -8.4093 1.7006 1.4435 -5.2938 1.1559 0.3302 -1.6062 0.7077 2.1220 2.0970 1.4229 1.1611 -3.8971 0.9164 0.2231 0.8068 -0.0081 0.1224 3.0217 1.5659 0.5138 -7.5360 0.2539 0.5779 -8.0414 0.8890 3.5997 2.2289 -0.9423 0.4741 -7.1384 -2.8881 -2.3587 8.3144 -1.4168 -1.6844 3.9583 -0.6432 0.1489 5.3711 -1.6196 -2.7540 7.5669 -1.2836 -2.6413 5.1512 -0.5640 -0.8087 6.5606
0.4698 -3.9589 9.6306 1.7207 -0.0374 -5.7082 0.5268 -1.6391 -0.3544 -1.9574 1.5896 -3.3701 1.1295 1.1886 -11.3743 -0.3609 -0.6094 -10.5879 2.5265 2.4431 -9.7856 -0.1853 -1.6237 1.7964 1.6285 3.7611 1.3425 0.7599 3.9180 2.8786 -0.1148 4.1257 1.3420 3.3393 2.8608 -7.6330 3.3361 1.4890 -6.5210 2.0728 2.7434 -6.4021 0.5469 -2.2970 8.1642 -0.1474 -3.7603 7.4253 -1.6613 -2.1331 3.2910 -2.7418 -0.9841 4.0890 -0.0384 1.2312 5.3391 -1.7974 0.9989 5.2759 -1.8223 -1.5320 8.7180 -2.4543 -2.9361 7.8936 -2.4176 -3.0349 5.4464 -0.6602 -2.8305 5.3913 -0.8941 0.3232 7.4537 0.3072 -0.7185 6.6768 -0.8769 -1.6371 -8.0011 -1.0756 1.3816 -6.0041 -0.4025 -3.5712 9.4429 0.9269 -0.5196 -3.2046 -0.9384 0.5732 -1.8150 0.6678 1.4381 0.6817 -0.1607 1.5524 2.9217 0.8329 0.0885 -6.1908 0.6625 -0.6422 -0.5184 -0.6943 -0.4299 4.1605 -1.6847 -1.4486 6.6298 -1.1254 0.9417 -3.1267 1.0848 0.9502 -10.3153 0.2434 -0.0643 -9.8665 1.8720 1.6600 -9.4081 -0.0607 -0.5456 1.8082 0.1800 -0.3633 -8.5039 -0.2042 0.6928 -5.4697 0.1437 -0.1719 -1.6971 0.3656 2.1026 1.8096 -0.2136 0.4470 -4.0373 0.4230 0.1083 0.6719 -0.3528 0.2087 2.9490 0.9514 0.3622 -7.5806 1.8194 1.3760 -8.0337 0.6765 3.5642 1.8458 2.6900 2.1622 -7.0935 -0.3183 -2.9652 8.1561 -1.7502 -1.4521 4.1431 -0.8324 0.4752 5.3157 -1.6249 -2.2168 7.8822 -1.6140 -2.2894 5.4283 -0.7206 -0.3452 6.6021
-4.0104 -2.9479 9.3907 -0.3516 0.9742 -6.0018 -1.5804 -0.2319 -0.6967 3.1540 0.6132 -2.8767 2.0859 2.3522 -11.1430 2.4454 3.9934 -9.3375 1.0411 0.1803 -10.6650 -1.3219 -1.0774 1.6229 1.6956 3.7761 1.5813 2.9990 2.6741 2.0703 1.9071 3.3734 3.2939 0.0960 -1.3675 -9.2363 -0.8342 -0.6907 -7.8958 0.7906 -1.3782 -7.6133 -2.8898 -1.0955 8.7930 -1.3673 -1.9370 9.1839 -0.3161 0.9664 5.4732 0.7242 -0.4295 5.8064 -0.6926 -2.5838 3.1521 0.4817 -2.5097 4.4692 -3.3857 -2.5794 6.9627 -2.1808 -3.7523 7.4906 -1.0963 -0.2539 7.4415 -2.3250 -0.2570 6.1639 -1.6113 -3.7401 5.1096 -2.5782 -2.3060 4.7351 1.8493 3.9245 -6.5721 2.7359 0.4060 -5.6623 -3.0827 -2.9255 9.6818 -0.3927 0.4001 -3.3210 1.5007 0.3208 -1.5871 0.5735 1.5979 0.8694 0.7813 1.0476 3.1890 0.6279 1.1931 -6.1664 -0.6755 0.2220 -0.6235 -0.5624 -0.6920 4.1476 -1.3659 -2.1255 6.4718 2.0766 0.5255 -2.8179 1.7798 2.1163 -10.1275 1.9768 3.0406 -9.1052 1.1870 0.8861 -9.8494 -0.6201 -0.2607 1.7659 1.5766 2.7376 -7.8013 1.5963 0.6948 -5.2907 0.1844 0.2861 -1.6841 1.0553 1.8048 2.1068 1.2132 0.5748 -3.8932 -0.2386 0.5341 0.6861 -0.0890 0.0172 3.0337 0.9874 1.4956 -7.5082 0.7876 0.5562 -8.5423 1.9685 2.9756 2.2774 0.1749 -0.7950 -8.3045 -2.3805 -2.0653 8.7914 -0.2798 -0.1292 5.4730 -0.5054 -2.1564 4.1424 -2.3793 -2.6769 7.3900 -1.3414 -0.6519 6.4509 -1.5988 -2.6443 5.1054
-2.5641 -2.1755 10.8552 0.4470 1.8745 -5.7117 0.3350 -2.0914 -0.5452 1.5344 2.0538 -3.5128 2.2761 2.0953 -11.2337 4.0383 2.1883 -9.5125 -0.0625 1.6539 -10.6099 -0.6365 -1.9585 1.7338 2.4319 2.8983 1.1975 1.8075 3.1765 2.8398 0.7626 3.4542 1.4275 -1.7364 1.2433 -9.0231 -1.4318 1.9450 -7.4308 -1.2146 0.1944 -7.6956 -2.2896 -0.7566 9.1369 -1.0306 -2.0130 9.1882 -1.2250 1.0962 4.8542 0.0572 0.2883 5.7798 -0.0717 -2.8557 3.7826 0.7229 -2.0660 5.1513 -3.5351 -1.9490 7.4000 -2.5483 -3.3924 7.6010 -2.0823 0.2469 6.9934 -2.9053 -0.5051 5.6191 -1.0199 -3.6849 5.8872 -2.2574 -2.8335 4.9491 3.9512 1.8515 -6.7027 1.7447 -1.0220 -6.1545 -2.8406 -2.5286 9.9918 0.5938 -1.3981 -3.2711 0.9165 0.7742 -1.9459 1.0252 0.7687 0.6921 0.5991 0.9048 3.0353 1.0330 1.1844 -6.1746 0.1976 -1.0850 -0.6173 -0.6622 -0.8295 4.1298 -1.5496 -1.7752 6.6455 1.2300 1.0490 -3.2519 2.0228 1.9190 -10.1924 3.0161 1.9666 -9.2171 0.6994 1.6612 -9.8342 -0.1171 -1.0058 1.7855 2.6894 1.7371 -7.8801 1.3191 -0.0337 -5.5581 0.5735 -0.4919 -1.7936 1.0674 1.4010 1.8750 1.0962 -0.0028 -4.1288 0.4112 -0.4329 0.6339 -0.0048 -0.3115 2.9964 1.3658 1.4380 -7.5203 0.3521 1.4236 -8.4968 1.5508 2.8152 1.8414 -1.0889 1.1857 -8.1417 -2.0949 -1.8264 9.0077 -0.8780 0.1246 5.2252 -0.2261 -2.1481 4.6045 -2.5166 -2.2956 7.6183 -1.9486 -0.4464 6.1555 -1.3293 -2.6986 5.5225
-4.0221 -1.0132 8.1675 1.4928 2.1356 -5.4428 -2.1950 -0.0716 -0.4294 2.0218 0.6193 -3.5024 1.8156 1.7707 -11.1766 1.1140 3.7566 -9.8954 2.1507 -0.3936 -10.0548 -1.4477 -1.1505 1.8275 2.1121 3.3127 1.0971 2.2252 3.1668 2.8614 0.8534 4.0282 2.1327 2.2046 -1.7486 -8.1260 0.9513 -1.3459 -6.9469 2.6475 -0.8911 -6.6452 -3.3060 -3.3088 8.4772 -3.3537 -2.5788 6.8705 -0.1133 1.0221 5.4923 1.1438 -0.2270 5.5892 -0.5289 -2.5641 3.2406 0.8770 -2.3459 4.2865 -1.1645 -3.8485 7.7261 -0.8718 -2.4258 8.6807 -0.2929 -0.3041 7.5699 -1.7485 -0.3478 6.5646 -0.8297 -3.8154 5.3280 -2.0708 -2.5771 5.1100 0.5465 4.1155 -7.1403 -1.1880 0.7616 -6.1179 -3.1319 -1.2816 8.4531 -1.5351 0.5002 -3.0875 0.7199 0.2878 -1.8701 0.1369 1.6239 0.7818 0.6555 1.1691 3.0759 1.0403 1.3836 -5.9590 -1.1847 0.0291 -0.4698 -0.4103 -0.6620 4.2207 -0.6385 -2.1518 6.6172 0.9884 0.5404 -3.1936 1.6477 1.6893 -10.1069 1.2507 2.8093 -9.3806 1.8402 0.4649 -9.4645 -0.7984 -0.2817 1.8740 1.0374 2.7031 -8.0072 -0.1748 0.9316 -5.4413 -0.5825 0.2525 -1.6672 0.7402 1.9108 1.9512 -0.1089 0.6755 -4.0172 -0.6073 0.4953 0.7391 -0.1394 0.0701 3.0504 1.2258 1.4729 -7.3580 1.6406 0.3404 -8.0826 1.5322 3.1779 2.0151 1.8737 -0.9860 -7.4135 -2.8570 -2.5366 7.8442 0.0647 -0.0596 5.4706 -0.1900 -2.1127 4.1791 -1.3440 -2.7660 7.7503 -0.7089 -0.6874 6.6310 -1.0061 -2.7338 5.3213
-4.1536 -4.0190 7.7348 1.2885 -0.5250 -5.9163 1.0074 -1.4527 -0.4872 0.5122 3.1290 -3.0603 2.0897 1.6359 -11.3141 3.7808 2.3003 -9.6557 0.0720 0.4154 -10.6230 -0.3629 -1.5727 1.7058 1.3890 3.8636 1.3152 2.2220 3.4804 2.8396 0.5068 3.9579 2.8469 -1.3094 -0.5412 -9.0121 -1.2554 0.2200 -7.4192 -0.4315 -1.3381 -7.7016 -2.4901 -3.5466 9.2629 -1.9064 -4.1064 7.6903 0.2105 -2.4342 3.8906 -1.5594 -2.4086 4.0028 -1.6947 1.2650 4.7814 -2.7123 -0.1615 4.5569 -0.6529 -2.0443 8.4567 -2.1836 -1.2004 8.6353 -0.5653 -3.3295 6.0472 0.4403 -1.8948 6.2826 -2.4122 0.3564 6.9562 -0.6503 0.2849 6.8043 3.9504 1.9070 -6.8664 0.6925 2.5964 -5.7155 -3.7280 -3.1473 7.6796 1.0444 -0.4064 -3.1852 0.5328 1.5756 -1.6350 1.1031 1.3710 0.9833 0.3119 1.3698 3.2272 1.3827 0.4520 -6.1806 0.6693 -0.4945 -0.4800 -0.6667 -0.5188 4.2066 -1.6319 -1.5882 6.6210 0.6435 2.0672 -2.9040 1.9439 1.3854 -10.2670 2.8994 1.7555 -9.3270 0.8010 0.6939 -9.8647 0.0028 -0.5613 1.8562 2.7173 1.4264 -7.9819 0.9628 1.4617 -5.3139 0.7300 0.2715 -1.6122 0.8863 1.9624 2.1678 0.8870 1.1438 -3.8979 0.6250 0.1147 0.8072 -0.1254 0.0915 3.0860 1.5631 0.7388 -7.5613 0.5888 0.3667 -8.5122 1.2748 3.4003 2.3009 -0.6715 -0.3637 -8.1377 -2.4125 -3.2818 8.2041 -0.6371 -1.9635 4.4001 -1.7349 0.1787 4.9228 -1.6637 -1.9602 8.0378 -0.5290 -2.2448 5.9024 -1.5911 -0.1332 6.4195
-3.0215 -4.0570 7.6668 0.2415 1.7916 -5.6635 0.0413 -2.2111 -0.2779 1.3351 1.7749 -3.4809 2.7215 1.5597 -10.9478 4.2337 1.1822 -9.0416 0.2921 1.7242 -10.6036 -0.9754 -1.6340 1.9976 1.9598 3.1836 1.0560 3.3150 2.1024 1.4535 2.4444 2.9465 2.7507 -1.3678 2.5012 -7.9147 -1.4968 0.7475 -7.6218 -1.6212 1.3793 -9.2624 -1.5658 -3.2962 9.2306 -0.4192 -2.9398 7.9427 -2.5404 -1.1084 3.4485 -2.8005 0.3155 4.4576 0.7257 0.7985 5.4240 -0.9255 1.4173 5.5895 -1.8952 -0.9950 8.8680 -3.2614 -1.7559 8.1089 -3.4270 -1.7881 5.6449 -1.8011 -2.4406 5.3736 -0.2260 0.1438 7.5916 0.1726 -1.2632 6.5924 3.7451 0.8636 -6.2757 0.5595 -1.3176 -6.1178 -2.0959 -3.9754 7.3813 0.0734 -1.5585 -3.0810 0.8163 0.5541 -1.8386 1.2932 0.5211 0.7787 0.6681 1.1452 2.9912 0.7142 0.9900 -6.0737 0.0930 -1.2024 -0.3919 -0.7656 -0.2459 4.2893 -1.9022 -0.8656 6.7875 0.9629 0.8053 -3.1787 2.3121 1.4563 -9.9469 3.1625 1.2412 -8.8664 0.9349 1.5427 -9.7450 -0.3161 -0.7716 1.9639 2.6349 1.1017 -7.5806 0.6138 -0.2691 -5.4755 0.3583 -0.6653 -1.6230 1.3809 1.3050 1.8632 0.5970 -0.2184 -4.0236 0.3913 -0.4853 0.7995 -0.1630 0.0753 3.0699 1.2457 1.1556 -7.3730 0.3824 1.3939 -8.4617 2.3314 2.4537 1.7813 -1.1086 1.5105 -8.3027 -1.4844 -2.9776 8.1855 -2.1885 -0.5896 4.3455 -0.3278 0.5014 5.4759 -2.1768 -1.6224 8.0120 -2.3685 -1.5194 5.5580 -0.5113 -0.4112 6.6906
-1.3331 -5.1227 6.3610 1.8843 0.7822 -5.4217 -1.7625 2.5571 -0.1142 1.7231 0.1804 -3.2976 1.3564 0.9916 -11.2463 1.0449 3.1228 -10.0593 1.5950 -1.1113 -9.9987 -2.0878 1.0730 2.0604 3.5464 1.8054 1.2032 3.5764 0.2121 1.9861 3.5553 1.6926 2.9745 1.6792 -2.3443 -8.0172 0.6345 -1.7297 -6.7316 2.3998 -1.4868 -6.6529 -1.4405 -4.1170 8.4213 -0.2678 -3.4012 7.3109 -2.5729 -0.7554 3.3046 -2.9469 0.3961 4.6012 0.6068 0.8991 5.6129 -1.0587 1.3548 5.9841 -1.8090 -1.7813 8.6058 -3.1610 -2.4217 7.7182 -3.3929 -1.9195 5.3192 -1.7499 -2.4106 4.8695 -0.2114 -0.3330 7.5807 0.2015 -1.4358 6.2578 0.8987 3.7545 -7.3162 -1.2310 1.3979 -5.9046 -1.8896 -4.3299 6.4486 -1.2698 2.1104 -2.9004 0.6102 0.8961 -1.6529 1.0454 1.6723 0.9882 1.0805 0.6706 3.1535 1.0567 1.0510 -5.9456 -1.0294 1.8606 -0.2145 -0.8852 0.0887 4.3054 -1.8771 -1.1982 6.6056 0.8499 0.7419 -2.9976 1.3196 1.0018 -10.1606 1.1425 2.2044 -9.4859 1.4484 -0.1876 -9.4431 -1.0033 1.1115 2.0877 1.0822 2.2192 -8.0909 -0.1671 1.2653 -5.2982 -0.4959 1.5845 -1.4422 1.6828 1.1981 2.0709 -0.0770 1.3066 -3.8458 -0.3049 1.5809 0.9750 -0.2781 0.6467 3.1871 1.1664 1.0216 -7.3584 1.3778 -0.1984 -8.0375 3.1782 1.2291 2.0581 1.5310 -1.5116 -7.3183 -1.3367 -3.5440 7.4935 -2.2610 -0.4054 4.2945 -0.4263 0.5326 5.6239 -2.0863 -2.2180 7.6368 -2.3501 -1.5852 5.2721 -0.5110 -0.6650 6.5799
-1.0840 -4.8827 7.1316 -0.5055 0.6837 -5.9338 -1.4550 1.7819 -0.5222 2.9435 0.0154 -2.8367 1.9000 1.8093 -11.1639 2.2261 3.5374 -9.4445 0.9287 -0.3702 -10.5775 -1.9355 0.5990 1.7420 3.7786 0.9712 1.6320 3.5876 0.8008 3.3855 3.4382 2.4042 2.6320 -0.0137 -1.8769 -9.0554 -0.8981 -1.1638 -7.7025 0.7527 -1.7971 -7.4650 -1.7399 -3.6075 8.8642 -0.4866 -2.8254 7.9003 -2.4336 -1.1304 3.1428 -3.1248 0.1171 4.1976 0.1606 1.1475 5.6417 -1.5771 1.4594 5.7008 -2.5419 -1.3980 8.5770 -3.5206 -2.4048 7.5505 -3.4564 -2.1247 5.1596 -1.7258 -2.4799 5.0313 -0.8370 0.0747 7.6191 -0.1203 -1.1170 6.5215 1.6520 3.5890 -6.6829 2.5897 0.1994 -5.5220 -1.6934 -4.1595 6.9046 -0.3923 1.2574 -3.1577 1.4163 0.5415 -1.4800 1.2603 1.4249 1.0892 1.0379 0.6790 3.3419 0.4754 0.8555 -6.1346 -0.5994 1.2420 -0.4363 -1.0244 0.0253 4.2543 -2.2400 -1.0838 6.5415 1.9311 0.3794 -2.7351 1.6034 1.6096 -10.1378 1.7824 2.5857 -9.1638 1.0499 0.3756 -9.7947 -0.8784 0.7635 1.9261 1.3977 2.3333 -7.8454 1.4551 0.5545 -5.1912 0.1815 1.0015 -1.5326 1.7574 1.1416 2.3043 1.0968 0.6888 -3.7877 -0.0559 1.1815 0.8793 -0.3004 0.5112 3.1734 0.8387 1.0931 -7.4866 0.6638 0.0958 -8.4704 3.2267 1.3390 2.5032 0.0936 -1.2603 -8.1545 -1.5303 -3.1518 7.8904 -2.3231 -0.6287 4.1101 -0.8244 0.6743 5.5521 -2.5076 -1.9968 7.6571 -2.4551 -1.6825 5.2194 -0.9453 -0.4021 6.6382
-1.0564 -5.1934 6.8438 -0.0923 -0.1364 -5.8937 -0.0173 -1.4130 -0.4170 2.3630 2.5174 -2.9130 0.7419 2.0901 -11.2490 -0.3195 3.6017 -9.6198 1.6705 -0.0698 -10.5307 -0.9287 -1.3044 1.8646 2.7384 3.0595 1.7084 2.0483 3.4137 3.3031 1.2419 4.0108 1.8311 2.1171 -1.6897 -8.9091 0.9847 -1.7704 -7.5552 2.5730 -0.9816 -7.3547 -1.2485 -3.9803 8.8126 -0.1730 -3.3058 7.5879 -2.5415 -1.1941 3.3577 -2.9776 0.0374 4.5439 0.4597 0.8293 5.6177 -1.2569 1.2064 5.8383 -1.9122 -1.7281 8.7520 -3.1532 -2.5667 7.8687 -3.3290 -2.2676 5.4304 -1.6351 -2.6692 5.0961 -0.3970 -0.2226 7.6641 0.1807 -1.4185 6.4925 -0.7683 3.3694 -6.8391 2.3274 1.9078 -5.6100 -1.7144 -4.4792 6.8939 0.2181 -0.3367 -3.1792 1.4566 1.1963 -1.5405 0.9537 1.3266 0.9754 0.3372 1.5025 3.2630 0.4457 0.6911 -6.1361 0.0531 -0.3984 -0.4494 -0.8870 -0.2374 4.3309 -1.9293 -1.3235 6.7076 1.7238 1.6524 -2.7994 0.6779 1.7978 -10.2045 0.0752 2.6472 -9.2816 1.2020 0.5737 -9.7888 -0.4033 -0.3580 1.9525 -0.0123 2.2694 -7.9402 1.3813 1.2077 -5.2418 0.6121 0.1823 -1.5629 0.9863 1.9304 2.1701 1.1612 0.9375 -3.8327 0.2268 0.1947 0.8404 -0.3471 0.3334 3.1740 0.5161 1.0396 -7.5099 1.1339 0.1788 -8.4411 1.8020 3.1776 2.2644 1.7351 -1.1398 -8.0410 -1.2202 -3.5218 7.8184 -2.2558 -0.7601 4.3209 -0.5474 0.3969 5.6130 -2.0987 -2.2689 7.8146 -2.3129 -1.8594 5.3951 -0.6093 -0.6845 6.6931
-1.3213 -0.7902 10.8686 -0.0940 0.7652 -5.9062 2.1935 -1.3200 -0.0283 -0.1643 1.5522 -3.7809 1.6766 0.9482 -11.4774 1.5470 -1.2866 -10.4570 1.3287 2.9654 -10.1188 0.7063 -1.9102 2.0011 -2.1315 3.0231 1.5281 -0.8643 3.3358 0.3316 -0.5772 3.7289 2.0409 0.9540 4.0497 -8.0978 1.5644 3.2373 -6.6525 -0.1756 3.1891 -7.0485 -1.7498 -0.2155 8.7544 -0.1245 -0.9372 8.8944 1.0790 -2.0067 4.3061 -0.4099 -2.9650 4.2064 -2.6658 0.0138 4.1570 -2.6532 -1.7542 4.0877 -2.6792 -2.4959 8.1957 -1.0757 -3.1783 8.2923 0.4760 -2.9177 6.5112 0.4614 -1.1466 6.5311 -3.2529 -0.9613 6.3511 -1.7907 0.0354 6.4319 1.0291 -2.1303 -7.8143 2.9919 -0.1357 -5.7671 -1.4952 -1.5481 10.2852 2.2425 -0.9447 -2.8650 0.3620 0.5609 -1.9923 0.2941 1.1385 0.6391 -0.8492 1.0043 2.7206 0.8093 0.4681 -6.2647 1.3707 -0.7892 -0.3024 -0.7277 -0.8890 4.1045 -1.4529 -2.0503 6.5719 0.4907 0.8167 -3.3345 1.4764 0.8530 -10.4139 1.4048 -0.4082 -9.8329 1.2850 1.9928 -9.6331 0.3592 -0.8856 1.9058 1.1576 -0.5315 -8.4643 1.8483 0.1218 -5.3913 1.2431 -0.3352 -1.5870 -0.4950 1.6468 1.5948 1.4550 0.0883 -3.9933 0.6906 -0.1484 0.7684 -0.4107 -0.2703 2.8988 1.0138 0.6123 -7.6583 1.0497 1.8936 -8.2499 -1.0497 3.0149 1.3622 0.8367 3.1606 -7.4656 -1.1983 -1.1391 8.9508 0.0254 -2.0377 4.6039 -2.1378 -0.8810 4.5082 -1.6218 -2.2680 8.0114 -0.0525 -2.0335 6.1379 -2.2019 -0.9057 6.0442
-1.2310 -4.0972 8.4470 1.1194 -0.5538 -6.0035 0.0104 -1.6551 -0.6927 1.3373 2.9437 -2.9313 2.1745 1.7294 -11.3066 3.9343 2.0959 -9.6278 0.0154 0.7489 -10.6609 -1.2217 -1.4195 1.5374 3.1506 2.3187 1.8532 2.4526 2.6158 3.4581 1.7476 3.3965 2.0257 -1.3311 0.5907 -7.4700 -0.7027 -1.0481 -7.7925 -1.4739 -0.1181 -9.0826 -1.3927 -2.2537 9.7601 -0.3894 -1.3819 8.6029 -1.1784 -2.5803 3.5424 -2.7393 -1.7840 3.8168 -1.2176 1.4445 4.9354 -2.7574 0.6201 4.6732 -2.9789 -1.0869 8.4735 -3.0714 -2.7273 7.9051 -2.1936 -3.2993 5.6793 -0.6166 -2.5206 5.9016 -2.1643 0.6742 7.0752 -0.6007 -0.0882 6.7466 4.0472 1.5624 -6.8591 0.9216 2.6110 -5.6437 -0.5765 -3.3976 8.2824 0.4296 -0.4947 -3.3190 0.7891 1.3920 -1.6142 1.2432 0.7962 0.9597 0.5432 0.9145 3.2306 1.3110 0.4188 -6.2268 0.1250 -0.6496 -0.6061 -1.0806 -0.5294 4.1178 -2.2773 -1.3662 6.5282 1.0553 1.9035 -2.8513 1.9960 1.4529 -10.2710 2.9896 1.6551 -9.3195 0.7732 0.8970 -9.8941 -0.5002 -0.6347 1.7435 2.7642 1.2944 -7.9887 1.0178 1.4277 -5.3097 0.4527 0.1187 -1.6886 1.2930 1.3214 2.1927 0.8915 1.0437 -3.9149 0.3207 -0.1664 0.7182 -0.3585 -0.0812 3.0206 1.5306 0.7439 -7.5934 0.5193 0.5403 -8.5563 2.2160 2.4798 2.3990 -0.8220 -0.0413 -8.2042 -1.1471 -2.1644 8.6959 -1.7012 -1.8499 4.1691 -1.7148 0.4684 4.9811 -2.4206 -1.8438 7.9070 -1.6624 -2.3423 5.6225 -1.6499 -0.0446 6.4269
-0.2581 -1.2500 10.7405 1.0277 -0.8774 -6.0280 1.4501 -1.2168 -0.4802 -0.7185 2.5971 -3.3918 1.4706 1.1314 -11.5225 -0.1411 -0.6017 -10.8499 2.7553 2.3673 -9.8285 0.1418 -1.8357 1.6586 0.2517 3.9192 1.7161 -1.0267 3.6831 2.9268 -1.4235 3.6198 1.1985 2.0836 2.9249 -6.7447 3.5968 2.5379 -7.5817 3.0188 1.4767 -6.2975 -0.7823 -0.4501 8.6626 0.5332 -1.6498 8.6832 0.8273 -2.2752 3.8963 -0.7779 -3.0251 3.9517 -2.6163 0.1867 4.4004 -2.8207 -1.5633 4.2641 -2.4108 -2.4087 8.2864 -1.0363 -3.4692 8.1114 0.3744 -3.3122 6.1018 0.6715 -1.5724 6.2390 -2.9923 -0.8299 6.6132 -1.4115 -0.0374 6.5282 -0.9183 -1.5743 -8.3047 -0.4450 1.9512 -5.9976 -0.8417 -1.8014 10.1925 0.9617 -0.5560 -3.2867 -0.0830 1.3029 -1.8575 0.1460 1.4095 0.7741 -0.7173 1.1571 2.9774 0.7841 0.0491 -6.3650 0.7171 -0.5179 -0.5628 -0.8226 -0.9294 4.0435 -1.3528 -2.1605 6.5105 -0.2256 1.6633 -3.1640 1.3324 0.9029 -10.4694 0.4222 -0.0758 -10.0821 2.0620 1.5956 -9.5040 -0.0150 -0.7647 1.7425 0.2402 -0.3626 -8.7242 0.1572 0.9768 -5.5383 0.5074 0.1291 -1.7500 -0.3874 1.8962 1.9055 0.2610 0.7792 -4.1015 0.3052 0.0673 0.6710 -0.5243 -0.1868 2.9105 0.9776 0.3254 -7.7444 1.9038 1.3134 -8.1371 -0.6635 3.3658 1.9447 2.6971 2.1055 -7.1336 -0.5410 -1.5031 8.8319 -0.1689 -2.1998 4.3461 -2.1509 -0.7777 4.6379 -1.3668 -2.4357 7.9484 -0.0408 -2.3238 5.8732 -1.9968 -0.8901 6.1591
0.0202 -2.2724 10.0586 -0.7169 1.0895 -5.9259 0.8521 -2.0378 -0.2687 0.0069 1.7842 -3.7934 1.5173 1.6146 -11.2818 -0.6675 0.5615 -10.8347 3.0043 2.2495 -9.4261 -0.4154 -1.8770 1.9675 1.6019 3.3717 0.9107 0.7527 3.7391 2.4241 -0.1367 3.7382 0.8805 3.1449 1.0562 -6.3784 2.0635 2.4107 -5.9552 3.3586 2.6494 -7.1267 0.5177 -2.4038 7.9010 -0.5257 -3.8317 7.7597 -2.0405 -2.0694 3.4321 -2.9596 -0.8361 4.2979 -0.0472 1.2586 5.2002 -1.8094 1.1041 5.3133 -1.7250 -1.2450 8.8211 -2.5386 -2.6150 8.1144 -2.6250 -2.8742 5.6872 -0.8695 -2.7611 5.4785 -0.7022 0.4453 7.4251 0.3228 -0.7076 6.5565 -1.9392 -0.1900 -8.4120 1.2378 -1.4142 -6.1059 -0.2774 -3.1031 9.6485 0.7291 -1.6555 -3.0823 0.0933 0.6003 -2.0433 0.6377 0.9973 0.5808 -0.2440 1.3994 2.7594 0.0801 0.5786 -6.2966 0.3707 -1.1609 -0.4505 -0.8851 -0.4201 4.1713 -1.7154 -1.2769 6.7314 0.1941 0.7944 -3.3984 1.2135 1.4137 -10.2586 -0.0167 0.8123 -10.0010 2.0546 1.7685 -9.2041 -0.2237 -0.8125 1.8720 -0.3962 0.5410 -8.6850 0.6550 -0.4686 -5.5764 0.3731 -0.6491 -1.7191 0.3378 1.7987 1.6133 0.5081 -0.3224 -4.1408 0.2935 -0.3055 0.6824 -0.4916 0.0737 2.9203 0.4601 0.8697 -7.6225 1.6859 1.5138 -7.8756 0.6577 3.2489 1.4515 2.6145 1.9299 -6.7699 -0.4118 -2.8605 8.2506 -1.9992 -1.3689 4.2721 -0.8681 0.5372 5.2854 -1.6450 -1.9854 8.0149 -1.7918 -2.1722 5.5696 -0.6749 -0.2532 6.5811
-2.4715 -3.3529 10.4101 0.8766 -0.4129 -5.8950 1.7685 -0.5557 -0.4013 0.1602 3.3706 -3.2406 0.6067 1.2846 -11.4772 -1.5375 1.3970 -10.2676 2.6896 0.7408 -10.2880 0.4045 -1.4700 1.6814 0.4024 4.2383 1.6171 -0.3785 4.0163 3.1925 -1.3587 4.0040 1.7058 3.8760 0.1577 -8.3585 2.9768 -0.7150 -7.1134 3.2923 1.0320 -6.9365 -2.8476 -3.3397 8.1281 -2.2838 -1.8049 8.8328 -0.6357 -2.5581 3.1507 -2.0920 -1.9420 3.9396 -0.4469 1.0391 5.4388 -1.9877 0.1742 5.2805 -0.5332 -3.9356 7.4787 0.1042 -2.4845 8.2394 -1.0464 -3.8046 5.2069 0.4920 -2.9310 5.2981 -0.9122 -0.2484 7.4569 0.5777 -0.7872 6.6669 -2.1886 1.0061 -7.5406 0.6484 2.7352 -5.9070 -1.7101 -3.5016 9.8236 0.9181 -0.1297 -3.2481 0.4674 1.9040 -1.7521 0.2501 1.7771 0.8460 -0.5253 1.4644 3.0709 0.4817 0.4574 -6.2441 0.8559 -0.1202 -0.5334 -0.4071 -0.6681 4.1403 -1.0627 -2.1233 6.4898 0.3779 2.3285 -3.0486 0.5799 1.0904 -10.4088 -0.6300 1.1516 -9.7223 1.7584 0.7830 -9.7278 0.1883 -0.4120 1.7868 -0.6622 0.9098 -8.3488 0.5934 1.5949 -5.4421 0.7268 0.6117 -1.6892 -0.2204 2.2333 2.0136 0.5957 1.3689 -4.0112 0.4232 0.4433 0.7120 -0.2962 0.1281 2.9841 0.5233 0.6194 -7.6531 1.7492 0.5443 -8.3445 -0.4003 3.7104 2.1425 3.0456 0.2376 -7.6479 -1.9976 -2.8368 8.6016 -0.9989 -2.0081 4.0234 -0.8971 0.0448 5.3348 -0.7667 -2.8878 7.7057 -0.5996 -2.8060 5.2749 -0.5165 -0.7628 6.5732
-0.7571 -1.8188 9.6696 0.9459 -0.3704 -6.0079 -0.6145 -1.4867 -0.7059 0.2288 3.1419 -2.9569 2.3693 2.0120 -11.1671 3.9155 2.5397 -9.3236 0.2669 0.8182 -10.7303 -1.1723 -1.4363 1.6128 2.2613 3.0735 2.6383 3.0454 2.4272 1.1832 3.4295 1.7319 2.7696 -1.3682 0.5152 -7.7035 -0.5486 -1.0530 -7.9463 -1.2658 -0.1983 -9.3162 -2.9231 -2.5474 9.6145 -3.3112 -1.1372 8.6172 -2.6142 -1.0980 3.3071 -2.5877 0.0867 4.6178 1.0353 -0.2343 5.3436 -0.4654 0.5820 5.8142 -2.9346 -3.2945 7.3118 -1.2643 -3.3058 7.8423 -3.4937 -2.0928 5.3868 -2.0245 -2.9338 4.8649 0.1367 -1.2477 7.3674 0.1470 -2.4232 6.0467 3.8033 2.0089 -6.5505 0.3649 2.7286 -5.7144 -1.4297 -1.1625 9.4207 0.3150 -0.4114 -3.3640 -0.0336 1.4844 -1.6640 1.3031 0.6876 0.7796 0.8370 0.8211 3.1167 1.1448 0.6108 -6.1865 0.0201 -0.6932 -0.6791 -0.6814 -0.7078 4.1460 -1.7762 -1.6766 6.5553 0.2139 2.0620 -2.8865 2.1210 1.7147 -10.1520 2.9925 2.0078 -9.1078 0.9290 1.0386 -9.8952 -0.4146 -0.6674 1.7318 2.6739 1.6219 -7.8031 0.6129 1.5825 -5.3329 0.0550 0.1694 -1.7443 1.5177 1.1752 2.0107 0.4068 1.1970 -3.9448 0.3059 -0.2115 0.6261 -0.1168 -0.1378 2.9962 1.4669 0.9539 -7.5294 0.5825 0.6528 -8.5874 2.6290 2.1618 2.1606 -0.7229 -0.0609 -8.3734 -2.5287 -1.8658 8.8553 -2.1370 -0.8491 4.2599 -0.0498 -0.3605 5.4276 -2.1049 -2.6397 7.6071 -2.4097 -1.9852 5.2647 -0.3260 -1.4995 6.4070
-1.9163 -2.7157 10.7153 1.7248 0.4830 -5.6866 -2.1076 1.5934 -0.3061 1.5338 -0.2990 -3.6222 1.7423 2.2734 -11.1922 1.4969 4.0876 -9.5398 1.6965 -0.0790 -10.4799 -2.0283 0.0220 1.8403 3.3869 1.2192 0.7589 3.5716 0.7828 2.4617 3.2459 2.4757 2.0121 1.0687 -1.7122 -8.8713 0.6903 -1.3184 -7.1957 2.3885 -1.3850 -7.7351 -2.4011 -1.2539 9.0217 -0.7344 -1.8776 9.0315 -2.7752 -0.0925 3.8232 -2.0152 0.6411 5.2399 1.2733 -1.0439 4.7839 0.3769 0.1077 5.7931 -3.0633 -2.9631 7.3460 -1.4490 -3.6639 7.3576 -3.5018 -1.2717 5.8283 -2.5649 -2.3618 4.7927 0.4991 -2.1137 6.8476 -0.1987 -2.8888 5.4166 1.1404 4.0494 -6.7331 -1.2906 1.2847 -6.1165 -2.1468 -3.1049 9.8535 -1.4008 1.6721 -3.0351 0.3886 0.2068 -1.9166 0.8272 1.4237 0.7508 1.0829 0.6207 2.9889 1.0223 1.1089 -6.0724 -1.2512 1.0573 -0.4151 -0.6943 -0.5591 4.0927 -1.5526 -1.6993 6.5324 0.6673 0.2390 -3.2629 1.5876 2.0339 -10.1444 1.4456 3.0543 -9.2083 1.5525 0.7019 -9.7363 -1.0074 0.3882 1.8822 1.2577 2.7425 -7.8612 -0.2458 1.1336 -5.4832 -0.6913 0.9158 -1.6489 1.5536 1.1801 1.8557 -0.2124 0.9566 -4.0438 -0.4566 0.9999 0.7590 -0.2107 0.2077 3.0135 1.1913 1.4024 -7.4466 1.3533 0.3653 -8.3878 3.0256 1.4335 1.7707 1.3722 -1.0922 -8.0194 -1.7843 -2.1467 8.8717 -2.0377 -0.2610 4.6134 0.2792 -0.7943 5.1722 -2.0008 -2.7224 7.4774 -2.4985 -1.4733 5.4363 -0.2052 -1.9711 6.0198
-2.2042 -2.5480 10.8006 0.3141 1.6739 -5.8311 0.7219 -2.2353 -0.4121 0.6366 1.9573 -3.6414 1.3326 1.1969 -11.5496 -0.1827 -0.4970 -10.5941 2.5088 2.7882 -10.0910 0.2255 -2.1657 1.9561 -0.9817 3.1998 0.3745 -1.6796 3.2862 2.0048 -2.6348 2.6148 0.6575 3.0831 3.6250 -8.0137 3.1006 2.4735 -6.6749 1.7407 3.6147 -6.8676 -1.4244 -3.2277 8.7418 -2.5459 -1.8462 8.7330 1.1618 -1.9540 4.1135 -0.2941 -2.8529 4.5821 -2.4774 0.2125 4.5599 -2.5007 -1.5229 4.8814 0.5214 -1.7010 8.6453 -0.5228 -0.2847 8.7072 1.1186 -2.4567 6.5431 1.1773 -0.7134 6.2297 -2.4141 -0.1994 6.9736 -0.9387 0.6220 6.4477 -0.9330 -1.0720 -7.9282 2.1121 -0.9720 -6.0600 -1.4366 -2.0755 10.4331 0.9609 -1.5911 -3.2328 0.5217 0.6149 -2.0105 -0.6888 0.6245 0.3126 -1.0851 0.8776 2.6341 0.7159 0.8649 -6.2974 0.3472 -1.3111 -0.6011 -0.6397 -0.8198 4.1776 -0.6910 -1.4337 6.9154 0.7171 0.9239 -3.3323 1.1977 1.1383 -10.4733 0.3460 0.1805 -9.9294 1.8686 2.0328 -9.6400 -0.1608 -1.1636 1.7950 0.1745 0.1056 -8.5468 1.3438 -0.1483 -5.5636 0.5870 -0.6882 -1.7995 -1.1084 1.3213 1.3707 1.0112 -0.1392 -4.1527 -0.1744 -0.6081 0.5135 -0.6335 -0.3851 2.8605 0.8788 0.9752 -7.6974 1.7194 1.9675 -8.2450 -1.6334 2.6889 1.0916 2.4509 2.9732 -7.3992 -1.5417 -2.1752 9.0219 0.2230 -1.8880 4.6731 -1.8760 -0.6223 4.9381 -0.4676 -1.3232 8.3564 0.5469 -1.6086 6.1492 -1.4947 -0.3240 6.3898

$$$$
